Smart Dimmer
*SPICE Netlist generated by Advanced Sim server on 28.09.2020 15:19:00

*Schematic Netlist:

.SAVE 0


*Selected Circuit Analyses:
.TRAN 2E-8 5E-6 0 2E-8
.OP

.END
