*
* File     : diode_ST_09-02-06.LIB
* Revision : 9.0
* Date     : 09/02/2006
**********************************************************************
* Information included is believed to be accurate and reliable.      *
* However, STMicroelectronics assumes no responsibility              *
* for the consequences of use of such information nor for any        *
* infringement of patents or other rights of third parties which may *
* result from its use. No license is granted by implication or       *
* otherwise under any  patent rights of STMicroelectronics.    	     *
* Specification mentionned in this publication are subject to        *
* change without notice. This publication superseedes and replaces   *
* all information previously supplied. STMicroelectronics products   *
* are not authorized for use as critical components in life support  *
* or systems without express written approval of STMicroelectronics. *
*                                                                    *
*         (c) 2006 STMicroelectronics. All rights reserved.          *
*                                                                    *
*                STMicroelectronics group of companies               *
*   Australia - Belgium - Brazil - Canada - China - Czech Republic   *
*   - France - Finland - Germany - Hong Kong - Indian - Israel       *
*   - Italy - Japan - Korea - Malaysia - Malta - Mexico - Morocco    *
*     - Singapore - Spain - Sweden - Switzerland - United Kingdom    *
*                  - United States of America                        *
*                           www.st.com                               *
**********************************************************************

*******************************************************************
* Model name       : BAR18
* Description      : Small signal Schottky diode
* Package type     : SOT23
*******************************************************************
*$
.MODEL BAR18 D IS=5.1008E-9 N=.99445 RS=30.087 IKF=68.423
+ EG=.69 XTI=2 CJO=1.8560E-12 M=.50116 VJ=.39825 ISR=3.2558E-9
+ FC=0.5 NR=4.9950 TT=0
*$

*******************************************************************
* Model name       : BAR28
* Description      : Small signal Schottky diode
* Package type     : DO35
*******************************************************************
.MODEL BAR28 D IS=5.1008E-9 N=.99445 RS=30.087 IKF=68.423
+ EG=.69 XTI=2 CJO=1.8560E-12 M=.50116 VJ=.39825 ISR=3.2558E-9
+ FC=0.5 NR=4.9950 TT=0
*$

*******************************************************************
* Model name       : BAR43
* Description      : Small signal Schottky diode
* Package type     : SOT23
*******************************************************************
.MODEL BAR43 D IS=480.77E-6 N=4.9950 RS=40.150E-3 IKF=20.507
+ EG=.69 XTI=2 CJO=13.698E-12 M=.50005 VJ=.38464 ISR=10.010E-21
+ FC=0.5 NR=4.9950 TT=0
*$

*******************************************************************
* Model name       : BAR43A
* Description      : Small signal Schottky diode
* Package type     : SOT23
*******************************************************************
.MODEL BAR43A D IS=480.77E-6 N=4.9950 RS=40.150E-3 IKF=20.507
+ EG=.69 XTI=2 CJO=13.698E-12 M=.50005 VJ=.38464 ISR=10.010E-21
+ FC=0.5 NR=4.9950 TT=0
*$

*******************************************************************
* Model name       : BAR43C
* Description      : Small signal Schottky diode
* Package type     : SOT23
*******************************************************************
.MODEL BAR43C D IS=480.77E-6 N=4.9950 RS=40.150E-3 IKF=20.507
+ EG=.69 XTI=2 CJO=13.698E-12 M=.50005 VJ=.38464 ISR=10.010E-21
+ FC=0.5 NR=4.9950 TT=0
*$

*******************************************************************
* Model name       : BAR43S
* Description      : Small signal Schottky diode
* Package type     : SOT23
*******************************************************************
.MODEL BAR43S D IS=480.77E-6 N=4.9950 RS=40.150E-3 IKF=20.507
+ EG=.69 XTI=2 CJO=13.698E-12 M=.50005 VJ=.38464 ISR=10.010E-21
+ FC=0.5 NR=4.9950 TT=0
*$

*******************************************************************
* Model name       : BAS70-04
* Description      : Small signal Schottky diode
* Package type     : SOT23
*******************************************************************
.MODEL BAS70-04 D IS=5.1008E-9 N=.99445 RS=30.087 IKF=68.423
+ EG=.69 XTI=2 CJO=1.8560E-12 M=.50116 VJ=.39825 ISR=3.2558E-9
+ FC=0.5 NR=4.9950 TT=0
*$

*******************************************************************
* Model name       : BAS70-05
* Description      : Small signal Schottky diode
* Package type     : SOT23
*******************************************************************
.MODEL BAS70-05 D IS=5.1008E-9 N=.99445 RS=30.087 IKF=68.423
+ EG=.69 XTI=2 CJO=1.8560E-12 M=.50116 VJ=.39825 ISR=3.2558E-9
+ FC=0.5 NR=4.9950 TT=0
*$

*******************************************************************
* Model name       : BAS70-06
* Description      : Small signal Schottky diode
* Package type     : SOT23
*******************************************************************
.MODEL BAS70-06 D IS=5.1008E-9 N=.99445 RS=30.087 IKF=68.423
+ EG=.69 XTI=2 CJO=1.8560E-12 M=.50116 VJ=.39825 ISR=3.2558E-9
+ FC=0.5 NR=4.9950 TT=0
*$

*******************************************************************
* Model name       : BAT41
* Description      : Small signal Schottky diode
* Package type     : DO35
*******************************************************************
.MODEL BAT41 D IS=10.000E-9 N=1.4402 RS=.12219 IKF=291.59E-6
+ EG=.69 XTI=2 CJO=3.5613E-12 M=.49981 VJ=.36559 ISR=2.0076E-9
+ FC=0.5 NR=4.9950 TT=0
*$

*******************************************************************
* Model name       : BAT42
* Description      : Small signal Schottky diode
* Package type     : DO35
*******************************************************************
.MODEL BAT42 D IS=480.77E-6 N=4.9950 RS=40.150E-3 IKF=20.507
+ EG=.69 XTI=2 CJO=13.698E-12 M=.50005 VJ=.38464 ISR=10.010E-21
+ FC=0.5 NR=4.9950 TT=0
*$

*******************************************************************
* Model name       : BAT43
* Description      : Small signal Schottky diode
* Package type     : DO35
*******************************************************************
.MODEL BAT43 D IS=480.77E-6 N=4.9950 RS=40.150E-3 IKF=20.507
+ EG=.69 XTI=2 CJO=13.698E-12 M=.50005 VJ=.38464 ISR=10.010E-21
+ FC=0.5 NR=4.9950 TT=0
*$

*******************************************************************
* Model name       : BAT46
* Description      : Small signal Schottky diode
* Package type     : DO35
*******************************************************************
.MODEL BAT46 D IS=15.896E-6 N=2.3964 RS=7.7928E-3 IKF=5.4695E-3
+ EG=.69 XTI=2 CJO=11.684E-12 M=.5 VJ=.36094 ISR=10.010E-21
+ FC=0.5 NR=4.9950 TT=0
*$

*******************************************************************
* Model name       : BAT47
* Description      : Small signal Schottky diode
* Package type     : DO35
*******************************************************************
.MODEL BAT47 D IS=263.91E-9 N=1.0966 RS=.4109 IKF=29.589E-3
+ EG=.69 XTI=2 CJO=29.800E-12 M=.50094 VJ=.41054 ISR=90.294E-9
+ FC=0.5 NR=4.9949 TT=0
*$

*******************************************************************
* Model name       : BAT48
* Description      : Small signal Schottky diode
* Package type     : DO35
*******************************************************************
.MODEL BAT48 D IS=263.91E-9 N=1.0966 RS=.4109 IKF=29.589E-3
+ EG=.69 XTI=2 CJO=29.800E-12 M=.50094 VJ=.41054 ISR=90.294E-9
+ FC=0.5 NR=4.9949 TT=0
*$

*******************************************************************
* Model name       : BAT49
* Description      : Small signal Schottky diode
* Package type     : DO41
*******************************************************************
.MODEL BAT49 D IS=2.0092E-6 N=1.2284 RS=.5943 IKF=48.097E-3
+ EG=.69 XTI=2 CJO=121.60E-12 M=.49999 VJ=.37776 ISR=174.49E-9
+ FC=0.5 NR=4.1388 TT=0
*$

*******************************************************************
* Model name       : BYT01-400
* Description      : Fast recovery rectifier diode
* Package type     : F126
*******************************************************************
.MODEL BYT01-400 D IS=231.57E-9 N=2.3787 RS=28.554E-3 IKF=.1
+ EG=1.11 XTI=3 CJO=5.7997E-12 M=59.206E-3 VJ=.97638 ISR=213.74E-9
+ FC=0.5 NR=19.079 TT=10.100E-9
*$

*******************************************************************
* Model name       : SMBYT01-400
* Description      : Fast recovery rectifier diode
* Package type     : SOD6
*******************************************************************
.MODEL SMBYT01-400 D IS=342.69E-9 N=2.2885 RS=37.717E-3 IKF=6.8353E-3
+ EG=1.11 XTI=3 CJO=8.0499E-12 M=31.262E-3 VJ=.93912 ISR=20.038E-9
+ FC=0.5 NR=21.554 TT=8.9000E-9
*$

*******************************************************************
* Model name       : BYT03-400
* Description      : Fast recovery rectifier diode
* Package type     : DO27A
*******************************************************************
.MODEL BYT03-400 D IS=5.0000E-9 N=1.7279 RS=14.488E-3 IKF=.10465
+ EG=1.11 XTI=3 CJO=9.0771E-12 M=59.347E-3 VJ=2.6271 ISR=524.43E-9
+ FC=0.5 NR=47.652 TT=17.000E-9
*$

*******************************************************************
* Model name       : SMBYT03-400
* Description      : Fast recovery rectifier diode
* Package type     : SOD15
*******************************************************************
.MODEL SMBYT03-400 D IS=30.281E-9 N=1.9524 RS=11.012E-3 IKF=.15633
+ EG=1.11 XTI=3 CJO=14.999E-12 M=63.335E-3 VJ=1.3671 ISR=501.37E-9
+ FC=0.5 NR=433.80 TT=14.300E-9
*$

*******************************************************************
* Model name       : BYT08P-400
* Description      : Fast recovery rectifier diode
* Package type     : TO220AC
*******************************************************************
.MODEL BYT08P-400 D IS=712.90E-9 N=2.1739 RS=6.7680E-3 IKF=.1
+ EG=1.11 XTI=3 CJO=29.998E-12 M=75.170E-3 VJ=1.1370 ISR=1.4817E-6
+ FC=0.5 NR=12.658 TT=30.500E-9
*$

*******************************************************************
* Model name       : BYT08PI-400
* Description      : Fast recovery rectifier diode
* Package type     : TO220AC
*******************************************************************
.MODEL BYT08PI-400 D IS=712.90E-9 N=2.1739 RS=6.7680E-3 IKF=.1
+ EG=1.11 XTI=3 CJO=29.998E-12 M=75.170E-3 VJ=1.1370 ISR=1.4817E-6
+ FC=0.5 NR=12.658 TT=30.500E-9
*$

*******************************************************************
* Model name       : BYT08P-1000
* Description      : Fast recovery rectifier diode
* Package type     : TO220AC
*******************************************************************
.MODEL BYT08P-1000 D IS=286.44E-9 N=2.4098 RS=13.082E-3 IKF=.1
+ EG=1.11 XTI=3 CJO=19.505E-12 M=.1958 VJ=3.0325 ISR=317.89E-9
+ FC=0.5 NR=22.904 TT=61.200E-9
*$

*******************************************************************
* Model name       : BYT08PI-1000
* Description      : Fast recovery rectifier diode
* Package type     : TO220AC
*******************************************************************
.MODEL BYT08PI-1000 D IS=286.44E-9 N=2.4098 RS=13.082E-3 IKF=.1
+ EG=1.11 XTI=3 CJO=19.505E-12 M=.1958 VJ=3.0325 ISR=317.89E-9
+ FC=0.5 NR=22.904 TT=61.200E-9
*$

*******************************************************************
* Model name       : BYT12P-600
* Description      : Fast recovery rectifier diode
* Package type     : TO220AC
*******************************************************************
.MODEL BYT12P-600 D IS=1.0000E-9 N=1.8946 RS=10.978E-3 IKF=.40257
+ EG=1.11 XTI=3 CJO=20.002E-12 M=.11341 VJ=.65422 ISR=1.0810E-6
+ FC=0.5 NR=35.507 TT=52.500E-9
*$

*******************************************************************
* Model name       : BYT12P-1000
* Description      : Fast recovery rectifier diode
* Package type     : TO220AC
*******************************************************************
.MODEL BYT12P-1000 D IS=286.44E-9 N=2.4098 RS=13.082E-3 IKF=.1
+ EG=1.11 XTI=3 CJO=19.505E-12 M=.1958 VJ=3.0325 ISR=317.89E-9
+ FC=0.5 NR=22.904 TT=61.200E-9
*$

*******************************************************************
* Model name       : BYT12PI-1000
* Description      : Fast recovery rectifier diode
* Package type     : TO220AC
*******************************************************************
.MODEL BYT12PI-1000 D IS=286.44E-9 N=2.4098 RS=13.082E-3 IKF=.1
+ EG=1.11 XTI=3 CJO=19.505E-12 M=.1958 VJ=3.0325 ISR=317.89E-9
+ FC=0.5 NR=22.904 TT=61.200E-9
*$

*******************************************************************
* Model name       : BYT16P-400
* Description      : Fast recovery rectifier diode
* Package type     : TO220AB
*******************************************************************
.MODEL BYT16P-400 D IS=4.2501E-6 N=2.6645 RS=6.1295E-3 IKF=1
+ EG=1.11 XTI=3 CJO=30.996E-12 M=73.707E-3 VJ=2.0866 ISR=10.010E-21
+ FC=0.5 NR=65.463 TT=12.400E-9
*$

*******************************************************************
* Model name       : BYT30P-400
* Description      : Fast recovery rectifier diode
* Package type     : SOD93
*******************************************************************
.MODEL BYT30P-400 D IS=566.67E-9 N=1.8254 RS=2.8118E-3 IKF=.25
+ EG=1.11 XTI=3 CJO=78.290E-12 M=74.168E-3 VJ=1.8255 ISR=3.4536E-6
+ FC=0.5 NR=7.6804 TT=24.500E-9
*$

*******************************************************************
* Model name       : BYT30PI-400
* Description      : Fast recovery rectifier diode
* Package type     : DOP3I
*******************************************************************
.MODEL BYT30PI-400 D IS=566.67E-9 N=1.8254 RS=2.8118E-3 IKF=.25
+ EG=1.11 XTI=3 CJO=78.290E-12 M=74.168E-3 VJ=1.8255 ISR=3.4536E-6
+ FC=0.5 NR=7.6804 TT=24.500E-9
*$

*******************************************************************
* Model name       : BYT30P-1000
* Description      : Fast recovery rectifier diode
* Package type     : SOD93
*******************************************************************
.MODEL BYT30P-1000 D IS=1.6073E-6 N=2.5878 RS=3.9301E-3 IKF=1
+ EG=1.11 XTI=3 CJO=43.423E-12 M=.23319 VJ=6.2415 ISR=183.90E-9
+ FC=0.5 NR=6.0129 TT=87.400E-9
*$

*******************************************************************
* Model name       : BYT30PI-1000
* Description      : Fast recovery rectifier diode
* Package type     : DOP3I
*******************************************************************
.MODEL BYT30PI-1000 D IS=1.6073E-6 N=2.5878 RS=3.9301E-3 IKF=1
+ EG=1.11 XTI=3 CJO=43.423E-12 M=.23319 VJ=6.2415 ISR=183.90E-9
+ FC=0.5 NR=6.0129 TT=87.400E-9
*$

*******************************************************************
* Model name       : BYT60P-400
* Description      : Fast recovery rectifier diode
* Package type     : SOD93
*******************************************************************
.MODEL BYT60P-400 D IS=29.700E-6 N=2.4595 RS=1.3859E-3 IKF=2.5000
+ EG=1.11 XTI=3 CJO=200.97E-12 M=90.309E-3 VJ=1.7979 ISR=578.65E-27
+ FC=0.5 NR=38.111 TT=23.500E-9
*$

*******************************************************************
* Model name       : BYT60P-1000
* Description      : Fast recovery rectifier diode
* Package type     : SOD93
*******************************************************************
.MODEL BYT60P-1000 D IS=481.12E-15 N=1.4229 RS=2.4194E-3 IKF=75
+ EG=1.11 XTI=3 CJO=85.726E-12 M=.18878 VJ=6.5285 ISR=1.7503E-6
+ FC=0.5 NR=17.817 TT=121.80E-9
*$

*******************************************************************
* Model name       : BYT230PIV-400
* Description      : Fast recovery rectifier diode
* Package type     : ISOTOP
*******************************************************************
.MODEL BYT230PIV-400 D IS=566.67E-9 N=1.8254 RS=2.8118E-3 IKF=.25
+ EG=1.11 XTI=3 CJO=78.290E-12 M=74.168E-3 VJ=1.8255 ISR=3.4536E-6
+ FC=0.5 NR=7.6804 TT=24.500E-9
*$

*******************************************************************
* Model name       : BYT230PIV-1000
* Description      : Fast recovery rectifier diode
* Package type     : ISOTOP
*******************************************************************
.MODEL BYT230PIV-1000 D IS=1.6073E-6 N=2.5878 RS=3.9301E-3 IKF=1
+ EG=1.11 XTI=3 CJO=43.423E-12 M=.23319 VJ=6.2415 ISR=183.90E-9
+ FC=0.5 NR=6.0129 TT=87.400E-9
*$

*******************************************************************
* Model name       : BYT260PIV-400
* Description      : Fast recovery rectifier diode
* Package type     : ISOTOP
*******************************************************************
.MODEL BYT260PIV-400 D IS=29.700E-6 N=2.4595 RS=1.3859E-3 IKF=2.5000
+ EG=1.11 XTI=3 CJO=200.97E-12 M=90.309E-3 VJ=1.7979 ISR=578.65E-27
+ FC=0.5 NR=38.111 TT=23.500E-9
*$

*******************************************************************
* Model name       : BYT261PIV-400
* Description      : Fast recovery rectifier diode
* Package type     : ISOTOP
*******************************************************************
.MODEL BYT261PIV-400 D IS=29.700E-6 N=2.4595 RS=1.3859E-3 IKF=2.5000
+ EG=1.11 XTI=3 CJO=200.97E-12 M=90.309E-3 VJ=1.7979 ISR=578.65E-27
+ FC=0.5 NR=38.111 TT=23.500E-9
*$

*******************************************************************
* Model name       : BYT261PIV-1000
* Description      : Fast recovery rectifier diode
* Package type     : ISOTOP
*******************************************************************
.MODEL BYT261PIV-1000 D IS=481.12E-15 N=1.4229 RS=2.4194E-3 IKF=75
+ EG=1.11 XTI=3 CJO=85.726E-12 M=.18878 VJ=6.5285 ISR=1.7503E-6
+ FC=0.5 NR=17.817 TT=121.80E-9
*$

*******************************************************************
* Model name       : BYT3400B
* Description      : Fast recovery rectifier diode
* Package type     : DPAK
*******************************************************************
.MODEL BYT3400B D IS=30.281E-9 N=1.9524 RS=11.012E-3 IKF=.15633
+ EG=1.11 XTI=3 CJO=14.999E-12 M=63.335E-3 VJ=1.3671 ISR=501.37E-9
+ FC=0.5 NR=433.80 TT=14.300E-9
*$

*******************************************************************
* Model name       : BYV10-20A
* Description      : Small signal Schottky diode
* Package type     : DO41
*******************************************************************
.MODEL BYV10-20A D IS=842.58E-9 N=.98376 RS=32.676E-3 IKF=1
+ EG=.69 XTI=2 CJO=263.20E-12 M=.49961 VJ=.422 ISR=1.1194E-6
+ FC=0.5 NR=4.9950 TT=0
*$

*******************************************************************
* Model name       : BYV10-40
* Description      : Small signal Schottky diode
* Package type     : DO41
*******************************************************************
.MODEL BYV10-40 D IS=1.6907E-6 N=1.0913 RS=49.073E-3 IKF=.20536
+ EG=.69 XTI=2 CJO=194.20E-12 M=.49915 VJ=.40243 ISR=823.55E-9
+ FC=0.5 NR=4.5824 TT=0
*$

*******************************************************************
* Model name       : BYV10-60
* Description      : Small signal Schottky diode
* Package type     : DO41
*******************************************************************
.MODEL BYV10-60 D IS=44.303E-6 N=1.8956 RS=25.554E-3 IKF=.1244
+ EG=.69 XTI=2 CJO=148.40E-12 M=.50245 VJ=.3905 ISR=10.010E-15
+ FC=0.5 NR=4.9950 TT=0
*$

*******************************************************************
* Model name       : BYV52-200
* Description      : High efficiency fast recovery rectifier diode
* Package type     : SOT93
*******************************************************************
.MODEL BYV52-200 D IS=30.158E-9 N=1.5254 RS=1.8951E-3 IKF=22.634
+ EG=1.11 XTI=3 CJO=180.02E-12 M=89.225E-3 VJ=3.5212 ISR=1.3097E-6
+ FC=0.5 NR=4.9892 TT=23.800E-9
*$

*******************************************************************
* Model name       : BYV54V-200
* Description      : High efficiency fast recovery rectifier diode
* Package type     : ISOTOP
*******************************************************************
.MODEL BYV54V-200 D IS=4.7347E-9 N=1.1729 RS=1.1107E-3 IKF=1
+ EG=1.11 XTI=3 CJO=360.01E-12 M=80.767E-3 VJ=3.4852 ISR=7.1198E-6
+ FC=0.5 NR=8.4635 TT=30.500E-9
*$

*******************************************************************
* Model name       : BYV255-200
* Description      : High efficiency fast recovery rectifier diode
* Package type     : ISOTOP
*******************************************************************
.MODEL BYV255-200 D IS=14.958E-9 N=1.0890 RS=671.14E-6 IKF=.16406
+ EG=1.11 XTI=3 CJO=660.03E-12 M=76.139E-3 VJ=4.6350 ISR=10.177E-6
+ FC=0.5 NR=6.1151 TT=31.700E-9
*$

*******************************************************************
* Model name       : BYW29-200
* Description      : High efficiency fast recovery rectifier diode
* Package type     : TO220AC
*******************************************************************
.MODEL BYW29-200 D IS=3.0379E-9 N=1.2531 RS=6.6150E-3 IKF=48.996E-3
+ EG=1.11 XTI=3 CJO=39.501E-12 M=89.123E-3 VJ=4.0836 ISR=498.47E-9
+ FC=0.5 NR=7.8494 TT=20.500E-9
*$

*******************************************************************
* Model name       : BYW29F-200
* Description      : High efficiency fast recovery rectifier diode
* Package type     : TO220AC
*******************************************************************
.MODEL BYW29F-200 D IS=3.0379E-9 N=1.2531 RS=6.6150E-3 IKF=48.996E-3
+ EG=1.11 XTI=3 CJO=39.501E-12 M=89.123E-3 VJ=4.0836 ISR=498.47E-9
+ FC=0.5 NR=7.8494 TT=20.500E-9
*$

*******************************************************************
* Model name       : BYW4200B
* Description      : High efficiency fast recovery diode
* Package type     : DPAK
*******************************************************************
.MODEL BYW4200B D IS=44.492E-12 N=1.2292 RS=9.2337E-3 IKF=1.4133
+ EG=1.11 XTI=3 CJO=26.749E-12 M=87.135E-3 VJ=3.0017 ISR=382.98E-9
+ FC=0.5 NR=221.64 TT=13.000E-9
*$

*******************************************************************
* Model name       : BYW51-200
* Description      : High efficiency fast recovery rectifier diode
* Package type     : TO220AB
*******************************************************************
.MODEL BYW51-200 D IS=2.2969E-9 N=1.3285 RS=5.0715E-3 IKF=.88884
+ EG=1.11 XTI=3 CJO=61.501E-12 M=80.288E-3 VJ=3.2843 ISR=918.81E-9
+ FC=0.5 NR=8.2758 TT=14.300E-9
*$

*******************************************************************
* Model name       : BYW51F-200
* Description      : High efficiency fast recovery rectifier diode
* Package type     : TO220AB
*******************************************************************
.MODEL BYW51F-200 D IS=2.2969E-9 N=1.3285 RS=5.0715E-3 IKF=.88884
+ EG=1.11 XTI=3 CJO=61.501E-12 M=80.288E-3 VJ=3.2843 ISR=918.81E-9
+ FC=0.5 NR=8.2758 TT=14.300E-9
*$

*******************************************************************
* Model name       : BYW51G-200
* Description      : High efficiency fast recovery rectifier diode
* Package type     : D2PAK
*******************************************************************
.MODEL BYW51G-200 D IS=2.2969E-9 N=1.3285 RS=5.0715E-3 IKF=.88884
+ EG=1.11 XTI=3 CJO=61.501E-12 M=80.288E-3 VJ=3.2843 ISR=918.81E-9
+ FC=0.5 NR=8.2758 TT=14.300E-9
*$

*******************************************************************
* Model name       : BYW77P-200
* Description      : High efficiency fast recovery rectifier diode
* Package type     : SOD93
*******************************************************************
.MODEL BYW77P-200 D IS=14.335E-9 N=1.1394 RS=2.3140E-3 IKF=32.087E-3
+ EG=1.11 XTI=3 CJO=197.01E-12 M=97.473E-3 VJ=3.0678 ISR=3.2488E-6
+ FC=0.5 NR=13.887 TT=17.500E-9
*$

*******************************************************************
* Model name       : BYW77PI-200
* Description      : High efficiency fast recovery rectifier diode
* Package type     : DOP3I
*******************************************************************
.MODEL BYW77PI-200 D IS=14.335E-9 N=1.1394 RS=2.3140E-3 IKF=32.087E-3
+ EG=1.11 XTI=3 CJO=197.01E-12 M=97.473E-3 VJ=3.0678 ISR=3.2488E-6
+ FC=0.5 NR=13.887 TT=17.500E-9
*$

*******************************************************************
* Model name       : BYW80-200
* Description      : High efficiency fast recovery rectifier diode
* Package type     : TO220AC
*******************************************************************
.MODEL BYW80-200 D IS=29.016E-9 N=1.4503 RS=6.1266E-3 IKF=.25
+ EG=1.11 XTI=3 CJO=53.006E-12 M=79.279E-3 VJ=4.2418 ISR=965.88E-9
+ FC=0.5 NR=20.783 TT=16.500E-9
*$

*******************************************************************
* Model name       : BYW81P-200
* Description      : High efficiency fast recovery rectifier diode
* Package type     : TO220AC
*******************************************************************
.MODEL BYW81P-200 D IS=295.27E-12 N=1.1843 RS=3.8452E-3 IKF=1.0341
+ EG=1.11 XTI=3 CJO=108.01E-12 M=99.921E-3 VJ=3.5834 ISR=1.2253E-6
+ FC=0.5 NR=6.0811 TT=15.000E-9
*$

*******************************************************************
* Model name       : BYW81PI-200
* Description      : High efficiency fast recovery rectifier diode
* Package type     : TO220AC
*******************************************************************
.MODEL BYW81PI-200 D IS=295.27E-12 N=1.1843 RS=3.8452E-3 IKF=1.0341
+ EG=1.11 XTI=3 CJO=108.01E-12 M=99.921E-3 VJ=3.5834 ISR=1.2253E-6
+ FC=0.5 NR=6.0811 TT=15.000E-9
*$

*******************************************************************
* Model name       : BYW98-200
* Description      : High efficiency fast recovery rectifier diode
* Package type     : DO27A
*******************************************************************
.MODEL BYW98-200 D IS=47.259E-9 N=1.5336 RS=10.466E-3 IKF=59.741E-3
+ EG=1.11 XTI=3 CJO=21.000E-12 M=58.062E-3 VJ=2.5767 ISR=574.05E-9
+ FC=0.5 NR=21.546 TT=10.520E-9
*$

*******************************************************************
* Model name       : BYW100-200
* Description      : High efficiency fast recovery rectifier diode
* Package type     : F126
*******************************************************************
.MODEL BYW100-200 D IS=107.44E-9 N=1.7067 RS=18.943E-3 IKF=.11548
+ EG=1.11 XTI=3 CJO=15.000E-12 M=52.987E-3 VJ=1.1012 ISR=224.51E-9
+ FC=0.5 NR=15.768 TT=8.5000E-9
*$

*******************************************************************
* Model name       : D1N5711
* Description      : Small signal Schottky diode
* Package type     : DO35
*******************************************************************
.MODEL D1N5711 D IS=5.1008E-9 N=.99445 RS=30.087 IKF=68.423
+ EG=.69 XTI=2 CJO=1.8560E-12 M=.50116 VJ=.39825 ISR=3.2558E-9
+ FC=0.5 NR=4.9950 TT=0
*$

*******************************************************************
* Model name       : D1N6263
* Description      : Small signal Schottky diode
* Package type     : DO35
*******************************************************************
.MODEL D1N6263 D IS=5.1008E-9 N=.99445 RS=30.087 IKF=68.423
+ EG=.69 XTI=2 CJO=1.8560E-12 M=.50116 VJ=.39825 ISR=3.2558E-9
+ FC=0.5 NR=4.9950 TT=0
*$

*******************************************************************
* Model name       : DMV16-DAMPER
* Description      : High voltage damper and modulation diode
* Package type     : TO220I
*******************************************************************
.MODEL DMV16-DAMPER D IS=661.42E-12 N=1.3258 RS=20.653E-3 IKF=3.6210E-3
+ EG=1.11 XTI=3 CJO=42.370E-12 M=.28974 VJ=.265 ISR=5.1952E-9
+ FC=0.5 NR=4.9949 TT=444.50E-9
*$

*******************************************************************
* Model name       : DMV16-MODULATION
* Description      : High voltage damper and modulation diode
* Package type     : TO220I
*******************************************************************
.MODEL DMV16-MODULATION D IS=2.5243E-9 N=1.3723 RS=17.851E-3 IKF=3.0204E-3
+ EG=1.11 XTI=3 CJO=17.640E-12 M=.19752 VJ=.72465 ISR=280.19E-9
+ FC=0.5 NR=2.6620 TT=163.00E-9
*$

*******************************************************************
* Model name       : DMV56-DAMPER
* Description      : High voltage damper and modulation diode
* Package type     : TO220I
*******************************************************************
.MODEL DMV56-DAMPER D IS=20.000E-9 N=1.6725 RS=13.388E-3 IKF=14.018E-3
+ EG=1.11 XTI=3 CJO=253.13E-12 M=.35757 VJ=.34573 ISR=1.0104E-9
+ FC=0.5 NR=4.9950 TT=344.00E-9
*$

*******************************************************************
* Model name       : DMV56-MODULATION
* Description      : High voltage damper and modulation diode
* Package type     : TO220I
*******************************************************************
.MODEL DMV56-MODULATION D IS=400.00E-9 N=2.3112 RS=15.173E-3 IKF=23.781E-3
+ EG=1.11 XTI=3 CJO=253.13E-12 M=.35757 VJ=.34573 ISR=46.469E-9
+ FC=0.5 NR=4.9950 TT=65.000E-9
*$

*******************************************************************
* Model name       : DTV16D
* Description      : High voltage damper and modulation diode
* Package type     : TO220AC
*******************************************************************
.MODEL DTV16D D IS=4.5000E-9 N=1.6028 RS=16.634E-3 IKF=.17171
+ EG=1.11 XTI=3 CJO=41.254E-12 M=.32289 VJ=.30557 ISR=1.5343E-9
+ FC=0.5 NR=4.9950 TT=502.00E-9
*$

*******************************************************************
* Model name       : DTV16F
* Description      : High voltage damper and modulation diode
* Package type     : ISOWATT220AC
*******************************************************************
.MODEL DTV16F D IS=4.5000E-9 N=1.6028 RS=16.634E-3 IKF=.17171