*SRC=1N4148WT;DI_1N4148WT;Diodes;Si;  80.0V  0.125A  4.00ns   Diodes Inc.
Switching
.MODEL DI_1N4148WT D  ( IS=10.4n RS=51.5m BV=80.0 IBV=1.00u
+ CJO=2.00p  M=0.333 N=2.07 TT=5.76n )