Version 4
SHEET 1 1564 1336
WIRE -2016 -400 -2192 -400
WIRE -1888 -400 -2016 -400
WIRE -1696 -400 -1888 -400
WIRE -1584 -400 -1696 -400
WIRE -1360 -400 -1504 -400
WIRE -1200 -400 -1360 -400
WIRE -2016 -368 -2016 -400
WIRE -1888 -368 -1888 -400
WIRE -1696 -368 -1696 -400
WIRE -896 -352 -928 -352
WIRE -1888 -304 -2016 -304
WIRE -1696 -304 -1888 -304
WIRE -1488 -304 -1696 -304
WIRE -1200 -304 -1488 -304
WIRE -896 -304 -896 -352
WIRE -1360 -240 -1360 -400
WIRE -1216 -240 -1360 -240
WIRE -320 -208 -400 -208
WIRE 64 -208 -224 -208
WIRE -1008 -192 -1024 -192
WIRE -896 -192 -896 -224
WIRE -896 -192 -928 -192
WIRE -1488 -144 -1488 -304
WIRE -1216 -144 -1488 -144
WIRE -272 32 -272 -16
WIRE 64 32 64 -208
WIRE 128 32 64 32
WIRE 208 32 128 32
WIRE 288 32 208 32
WIRE 816 32 288 32
WIRE 1072 32 816 32
WIRE 1440 32 1328 32
WIRE -2192 48 -2192 -400
WIRE -1488 48 -2192 48
WIRE -1376 48 -1488 48
WIRE -1296 48 -1312 48
WIRE 1328 48 1328 32
WIRE -816 80 -912 80
WIRE -1296 96 -1296 48
WIRE 1072 112 1072 32
WIRE -816 128 -816 80
WIRE -272 128 -272 112
WIRE -272 128 -816 128
WIRE -816 144 -816 128
WIRE 1440 144 1440 112
WIRE -1488 160 -1488 48
WIRE -1424 160 -1488 160
WIRE 208 160 208 32
WIRE 288 160 288 32
WIRE 816 176 816 96
WIRE 912 176 816 176
WIRE 1024 176 992 176
WIRE -992 192 -992 128
WIRE -992 192 -1152 192
WIRE 128 224 128 32
WIRE 128 224 32 224
WIRE -1648 240 -1920 240
WIRE -1424 240 -1648 240
WIRE -912 240 -912 176
WIRE -912 240 -1088 240
WIRE -704 240 -736 240
WIRE -272 240 -272 208
WIRE -272 240 -624 240
WIRE 816 240 816 176
WIRE 1120 240 1120 176
WIRE 1328 240 1328 128
WIRE 1328 240 1312 240
WIRE -912 256 -912 240
WIRE -816 256 -816 224
WIRE -272 272 -272 240
WIRE -256 272 -272 272
WIRE -160 272 -176 272
WIRE -992 304 -992 192
WIRE -1648 320 -1648 240
WIRE -1424 320 -1648 320
WIRE -1152 320 -1152 192
WIRE -1152 320 -1168 320
WIRE 1328 336 1312 336
WIRE -816 352 -816 320
WIRE -816 352 -912 352
WIRE -736 352 -736 240
WIRE -736 352 -816 352
WIRE 1328 352 1328 336
WIRE -1920 384 -1920 320
WIRE -1920 384 -2112 384
WIRE -1296 384 -1920 384
WIRE -1088 384 -1088 240
WIRE -1088 384 -1296 384
WIRE -2112 432 -2112 384
WIRE -400 480 -400 -208
WIRE 32 480 32 320
WIRE 32 480 -400 480
WIRE 208 480 208 224
WIRE 208 480 32 480
WIRE 288 480 288 240
WIRE 288 480 208 480
WIRE 816 480 816 304
WIRE 816 480 288 480
WIRE 1120 480 1120 336
WIRE 1120 480 816 480
FLAG 1328 352 0
FLAG 1440 144 0
FLAG -2112 432 0
FLAG -2016 -304 0
SYMBOL res -288 16 R0
SYMATTR InstName R1
SYMATTR Value 121K
SYMATTR SpiceLine tol=1 pwr=0.1
SYMBOL res 1344 144 R180
WINDOW 0 36 76 Left 2
WINDOW 3 36 40 Left 2
SYMATTR InstName R2
SYMATTR Value 2.21K
SYMATTR SpiceLine tol=1 pwr=0.1
SYMBOL zener 224 224 R180
WINDOW 0 24 64 Left 2
WINDOW 3 32 -20 Left 2
SYMATTR InstName D3
SYMATTR Value BZX84C22VL
SYMBOL res 272 144 R0
SYMATTR InstName R3
SYMATTR Value 330k
SYMBOL res 1008 160 R90
WINDOW 0 0 56 VBottom 2
WINDOW 3 32 56 VTop 2
SYMATTR InstName R4
SYMATTR Value 221
SYMATTR SpiceLine tol=1 pwr=0.1
SYMBOL res -160 256 R90
WINDOW 0 0 56 VBottom 2
WINDOW 3 32 56 VTop 2
SYMATTR InstName R5
SYMATTR Value 121K
SYMATTR SpiceLine tol=1 pwr=0.1
SYMBOL cap 800 240 R0
SYMATTR InstName C1
SYMATTR Value 0.47µ
SYMATTR SpiceLine V=50 Irms=0 Rser=0 Lser=0 mfg="Murata" pn="GCM21BR71H474KA55" type="X7R"
SYMBOL Optos\\TLP183 1216 288 R0
SYMATTR InstName U1
SYMBOL voltage 1440 16 R0
WINDOW 123 0 0 Left 0
WINDOW 39 0 0 Left 0
SYMATTR InstName V1
SYMATTR Value 3.3
SYMBOL diplom\\BAV99 -272 -112 M90
SYMATTR SpiceModel DIODE_BAV99
SYMATTR InstName U2
SYMBOL diplom\\BAV99 -64 272 R180
WINDOW 38 -9 8 Center 2
SYMATTR SpiceModel DIODE_BAV99
SYMATTR InstName U5
SYMBOL voltage -272 112 R0
WINDOW 3 -208 55 Left 2
WINDOW 123 0 0 Left 0
WINDOW 39 0 0 Left 0
SYMATTR Value SINE(0 220 50)
SYMATTR InstName V2
SYMBOL pnp 1120 112 R90
SYMATTR InstName Q2
SYMATTR Value BC807-25
SYMBOL schottky 800 32 R0
SYMATTR InstName D2
SYMATTR Value DI_1N4148WT
SYMBOL voltage -1920 224 R0
WINDOW 3 -80 -20 Left 2
WINDOW 123 0 0 Left 0
WINDOW 39 0 0 Left 0
SYMATTR Value PULSE(0 3.3 0 0 0 0.005 0.01)
SYMATTR InstName V3
SYMBOL PowerProducts\\LTC4446 -1296 240 R0
SYMATTR InstName U3
SYMBOL diode -1376 64 R270
WINDOW 0 32 32 VTop 2
WINDOW 3 0 32 VBottom 2
SYMATTR InstName D1
SYMBOL res -608 224 R90
WINDOW 0 0 56 VBottom 2
WINDOW 3 32 56 VTop 2
SYMATTR InstName R6
SYMATTR Value 400
SYMBOL res -832 128 R0
SYMATTR InstName R8
SYMATTR Value 221
SYMATTR SpiceLine tol=1 pwr=1
SYMBOL cap -832 256 R0
SYMATTR InstName C2
SYMATTR Value 1p
SYMATTR SpiceLine V=500 Irms=867m Rser=0.0254657 Lser=0
SYMBOL diplom\\BAV99 -1104 -352 M180
WINDOW 38 -9 19 Center 2
SYMATTR SpiceModel DIODE_BAV99
SYMATTR InstName U4
SYMBOL diplom\\BAV99 -1120 -192 M180
WINDOW 38 -6 23 Center 2
SYMATTR SpiceModel DIODE_BAV99
SYMATTR InstName U6
SYMBOL cap -1904 -368 R0
SYMATTR InstName C4
SYMATTR Value 100n
SYMBOL zener -2000 -304 R180
WINDOW 0 24 64 Left 2
WINDOW 3 24 0 Left 2
SYMATTR InstName D5
SYMATTR Value BZX84C11VL
SYMBOL polcap -1712 -368 R0
SYMATTR InstName C3
SYMATTR Value 2.2µ
SYMATTR SpiceLine V=400
SYMBOL res -912 -368 R90
WINDOW 0 0 56 VBottom 2
WINDOW 3 32 56 VTop 2
SYMATTR InstName R7
SYMATTR Value 121k
SYMBOL res -912 -208 R90
WINDOW 0 0 56 VBottom 2
WINDOW 3 32 56 VTop 2
SYMATTR InstName R9
SYMATTR Value 121k
SYMBOL EXTRA\\IRF\\NMOSFET\\irfp460 -944 128 R0
SYMATTR InstName U9
SYMBOL EXTRA\\IRF\\NMOSFET\\irfp460 -944 304 M180
SYMATTR InstName U10
SYMBOL voltage -896 -320 R0
WINDOW 123 0 0 Left 0
WINDOW 39 0 0 Left 0
SYMATTR InstName V4
SYMATTR Value SINE(0 220 50)
SYMBOL res -1488 -416 R90
WINDOW 0 0 56 VBottom 2
WINDOW 3 32 56 VTop 2
SYMATTR InstName R11
SYMATTR Value 220
TEXT -192 -144 Left 1 !.inc DIODE_BAV99.mod
TEXT -480 488 Left 2 !.tran 0 .1 0 uic
TEXT -328 40 Left 1 ;80mW
TEXT -240 328 Left 1 ;100mW
TEXT 296 152 Left 1 ;1.5mW
TEXT 920 224 Left 1 ;33mW
TEXT 1080 72 Left 1 ;V(ce) = -22V
TEXT 832 -256 Left 1 !.MODEL DI_1N4148WT D( IS=10.4n RS=51.5m BV=80.0 IBV=1.00u\n+ CJO=2.00p  M=0.333 N=2.07 TT=5.76n )
TEXT -1808 -128 Left 1 !.inc TK20J50D.mod
