Version 4
SHEET 1 1780 1336
WIRE -1312 -304 -1392 -304
WIRE -784 -304 -1312 -304
WIRE -96 -304 -784 -304
WIRE 0 -304 -96 -304
WIRE 48 -304 0 -304
WIRE 368 -304 304 -304
WIRE 400 -304 368 -304
WIRE 544 -304 400 -304
WIRE -1392 -272 -1392 -304
WIRE -96 -272 -96 -304
WIRE 400 -272 400 -304
WIRE 0 -208 0 -304
WIRE 48 -208 0 -208
WIRE 368 -112 368 -304
WIRE 368 -112 304 -112
WIRE -1312 -96 -1312 -304
WIRE -1232 -96 -1312 -96
WIRE -1152 -96 -1168 -96
WIRE -3456 -80 -3536 -80
WIRE -3376 -80 -3456 -80
WIRE -3280 -80 -3376 -80
WIRE -3232 -80 -3280 -80
WIRE -3104 -80 -3152 -80
WIRE -3056 -80 -3104 -80
WIRE -3456 -48 -3456 -80
WIRE -3376 -48 -3376 -80
WIRE -3280 -48 -3280 -80
WIRE -1152 -48 -1152 -96
WIRE -2752 -32 -2784 -32
WIRE -3376 16 -3456 16
WIRE -3280 16 -3376 16
WIRE -3136 16 -3280 16
WIRE -3056 16 -3136 16
WIRE -2752 16 -2752 -32
WIRE -1312 16 -1312 -96
WIRE -1280 16 -1312 16
WIRE -144 32 -208 32
WIRE -80 32 -144 32
WIRE 0 32 -80 32
WIRE 80 32 0 32
WIRE 288 32 80 32
WIRE -3104 64 -3104 -80
WIRE -3072 64 -3104 64
WIRE -2032 64 -2240 64
WIRE 544 64 544 -304
WIRE -784 80 -880 80
WIRE -496 80 -512 80
WIRE -400 80 -416 80
WIRE -2752 96 -2752 80
WIRE -1312 96 -1392 96
WIRE -1280 96 -1312 96
WIRE -512 96 -512 80
WIRE -2864 112 -2880 112
WIRE -2752 112 -2752 96
WIRE -2752 112 -2784 112
WIRE 288 112 288 32
WIRE 544 112 544 64
WIRE -784 128 -784 80
WIRE -512 128 -512 96
WIRE -512 128 -784 128
WIRE -176 128 -208 128
WIRE -2096 144 -2160 144
WIRE -2032 144 -2032 64
WIRE -784 144 -784 128
WIRE -3136 160 -3136 16
WIRE -3072 160 -3136 160
WIRE -80 160 -80 32
WIRE 0 160 0 32
WIRE -2240 176 -2240 64
WIRE -2160 176 -2160 144
WIRE -1312 176 -1312 96
WIRE -1280 176 -1312 176
WIRE -992 176 -1024 176
WIRE -960 176 -960 128
WIRE -960 176 -992 176
WIRE 80 176 80 96
WIRE 128 176 80 176
WIRE 240 176 208 176
WIRE -144 224 -144 32
WIRE -144 224 -208 224
WIRE -1392 240 -1392 176
WIRE -1152 240 -1392 240
WIRE -880 240 -880 176
WIRE -880 240 -1152 240
WIRE -672 240 -704 240
WIRE -512 240 -512 208
WIRE -512 240 -592 240
WIRE 80 240 80 176
WIRE 336 240 336 176
WIRE 544 240 544 192
WIRE 544 240 528 240
WIRE 576 240 544 240
WIRE -2096 256 -2096 144
WIRE -2032 256 -2032 224
WIRE -2032 256 -2096 256
WIRE -880 256 -880 240
WIRE -784 256 -784 224
WIRE -512 272 -512 240
WIRE -496 272 -512 272
WIRE -400 272 -416 272
WIRE -1392 288 -1392 240
WIRE -960 304 -960 176
WIRE -208 336 -208 320
WIRE -176 336 -176 128
WIRE -176 336 -208 336
WIRE -80 336 -80 224
WIRE -80 336 -176 336
WIRE 0 336 0 240
WIRE 0 336 -80 336
WIRE 80 336 80 304
WIRE 80 336 0 336
WIRE 336 336 80 336
WIRE 544 336 528 336
WIRE -784 352 -784 320
WIRE -784 352 -880 352
WIRE -704 352 -704 240
WIRE -704 352 -784 352
WIRE 544 352 544 336
FLAG 544 352 0
FLAG -1392 288 0
FLAG -3456 16 0
FLAG 176 -48 0
FLAG -96 -208 0
FLAG 400 -208 0
FLAG -1392 -192 0
FLAG -784 -304 VCC12
FLAG 544 64 VCC3.3
FLAG -512 96 L_IN
FLAG -512 272 N_IN
FLAG -704 240 L_OUT
FLAG -992 176 GATE
FLAG 576 240 DETECT_NULL
SYMBOL res -400 64 R90
WINDOW 0 0 56 VBottom 2
WINDOW 3 32 56 VTop 2
SYMATTR InstName R1
SYMATTR Value 121K
SYMATTR SpiceLine tol=1 pwr=0.1
SYMBOL res 560 208 R180
WINDOW 0 36 76 Left 2
WINDOW 3 36 40 Left 2
SYMATTR InstName R2
SYMATTR Value 10k
SYMATTR SpiceLine tol=1 pwr=0.1
SYMBOL zener -64 224 R180
WINDOW 0 24 64 Left 2
WINDOW 3 -72 88 Left 2
SYMATTR InstName D3
SYMATTR Value BZX84C22VL
SYMBOL res -16 144 R0
SYMATTR InstName R3
SYMATTR Value 330k
SYMBOL res 224 160 R90
WINDOW 0 0 56 VBottom 2
WINDOW 3 32 56 VTop 2
SYMATTR InstName R4
SYMATTR Value 221
SYMATTR SpiceLine tol=1 pwr=0.1
SYMBOL res -400 256 R90
WINDOW 0 0 56 VBottom 2
WINDOW 3 32 56 VTop 2
SYMATTR InstName R5
SYMATTR Value 121K
SYMATTR SpiceLine tol=1 pwr=0.1
SYMBOL cap 64 240 R0
SYMATTR InstName C1
SYMATTR Value 0.47µ
SYMATTR SpiceLine V=50 Irms=0 Rser=0 Lser=0 mfg="Murata" pn="GCM21BR71H474KA55" type="X7R"
SYMBOL Optos\\TLP183 432 288 R0
SYMATTR InstName U1
SYMBOL diplom\\BAV99 -304 272 R180
WINDOW 38 -9 8 Center 2
SYMATTR SpiceModel DIODE_BAV99
SYMATTR InstName U5
SYMBOL voltage -512 112 R0
WINDOW 3 -208 55 Left 2
WINDOW 123 0 0 Left 0
WINDOW 39 0 0 Left 0
SYMATTR Value SINE(0 220 50)
SYMATTR InstName V2
SYMBOL pnp 336 112 R90
SYMATTR InstName Q2
SYMATTR Value BC807-25
SYMBOL schottky 64 32 R0
SYMATTR InstName D2
SYMATTR Value DI_1N4148WT
SYMBOL voltage -1392 80 R0
WINDOW 3 -46 -163 VRight 2
WINDOW 123 0 0 Left 0
WINDOW 39 0 0 Left 0
SYMATTR Value PULSE(0 3.3 0 0.00001 0 0.005 0.01)
SYMATTR InstName V3
SYMBOL PowerProducts\\LTC4446 -1152 96 R0
SYMATTR InstName U3
SYMBOL diode -1232 -80 R270
WINDOW 0 32 32 VTop 2
WINDOW 3 0 32 VBottom 2
SYMATTR InstName D1
SYMBOL res -576 224 R90
WINDOW 0 0 56 VBottom 2
WINDOW 3 32 56 VTop 2
SYMATTR InstName R6
SYMATTR Value 400
SYMBOL res -800 128 R0
SYMATTR InstName R8
SYMATTR Value 221
SYMATTR SpiceLine tol=1 pwr=1
SYMBOL cap -800 256 R0
SYMATTR InstName C2
SYMATTR Value 10n
SYMATTR SpiceLine V=500 Irms=867m Rser=0.0254657 Lser=0
SYMBOL diplom\\BAV99 -2960 -32 M180
WINDOW 38 -9 19 Center 2
SYMATTR SpiceModel DIODE_BAV99
SYMATTR InstName U4
SYMBOL diplom\\BAV99 -2976 112 M180
WINDOW 38 -6 23 Center 2
SYMATTR SpiceModel DIODE_BAV99
SYMATTR InstName U6
SYMBOL cap -3392 -48 R0
SYMATTR InstName C4
SYMATTR Value 100n
SYMBOL zener -3440 16 R180
WINDOW 0 24 64 Left 2
WINDOW 3 24 0 Left 2
SYMATTR InstName D5
SYMATTR Value BZX84C11VL
SYMBOL polcap -3296 -48 R0
SYMATTR InstName C3
SYMATTR Value 2.2µ
SYMATTR SpiceLine V=400
SYMBOL res -2768 -48 R90
WINDOW 0 0 56 VBottom 2
WINDOW 3 32 56 VTop 2
SYMATTR InstName R7
SYMATTR Value 121k
SYMBOL res -2768 96 R90
WINDOW 0 0 56 VBottom 2
WINDOW 3 32 56 VTop 2
SYMATTR InstName R9
SYMATTR Value 121k
SYMBOL EXTRA\\IRF\\NMOSFET\\irfp460 -912 128 R0
SYMATTR InstName U9
SYMBOL EXTRA\\IRF\\NMOSFET\\irfp460 -912 304 M180
SYMATTR InstName U10
SYMBOL voltage -2752 0 R0
WINDOW 123 0 0 Left 0
WINDOW 39 0 0 Left 0
SYMATTR InstName V4
SYMATTR Value SINE(0 220 50)
SYMBOL res -3136 -96 R90
WINDOW 0 0 56 VBottom 2
WINDOW 3 32 56 VTop 2
SYMATTR InstName R10
SYMATTR Value 220
SYMBOL PowerProducts\\ADP7118-3.3 176 -208 R0
SYMATTR InstName U7
SYMBOL polcap -112 -272 R0
SYMATTR InstName C6
SYMATTR Value 0.33µ
SYMATTR SpiceLine V=400
SYMBOL polcap 384 -272 R0
SYMATTR InstName C5
SYMATTR Value 0.1µ
SYMATTR SpiceLine V=400
SYMBOL voltage -1392 -288 R0
WINDOW 123 0 0 Left 0
WINDOW 39 0 0 Left 0
SYMATTR InstName V1
SYMATTR Value 12
SYMBOL diplom\\BAV99 -304 80 R180
WINDOW 38 -9 8 Center 2
SYMATTR SpiceModel DIODE_BAV99
SYMATTR InstName U8
SYMBOL voltage -2032 128 R0
WINDOW 123 0 0 Left 0
WINDOW 39 0 0 Left 0
SYMATTR InstName V5
SYMATTR Value SINE(0 220 50)
SYMBOL res -2144 160 R90
WINDOW 0 0 56 VBottom 2
WINDOW 3 32 56 VTop 2
SYMATTR InstName R11
SYMATTR Value 400
TEXT -736 -88 Left 1 !.inc DIODE_BAV99.mod
TEXT -736 -152 Left 2 !.tran 0 5.05 5 uic
TEXT -736 -128 Left 1 !.MODEL DI_1N4148WT D( IS=10.4n RS=51.5m BV=80.0 IBV=1.00u\n+ CJO=2.00p  M=0.333 N=2.07 TT=5.76n )
TEXT -736 -64 Left 1 !.inc TK20J50D.mod
TEXT -960 72 Left 2 ;Q1
TEXT -960 256 Left 2 ;Q3
