* Copyright © 2000, 2001, 2002 Linear Technology Corporation.   All rights reserved.
*
.model 1N914 D(Is=2.52n Rs=0.568 N=1.752 Cjo=4p M=.4 tt=20n Iave=200m Vpk=75 mfg=Motorola type=silicon )
.model 1N4148 D(Is=2.52n Rs=0.568 N=1.752 Cjo=4p M=.4 tt=20n Iave=200m Vpk=75 mfg=Motorola type=silicon )
.model MMSD4148 D(Is=2.52n Rs=0.568 N=1.752 Cjo=.64p M=.4 tt=5n Iave=200m Vpk=100 mfg=Onsemi type=silicon )
.model 1N5817 D(Is=31.7u Rs=0.051 N=1.373 Cjo=190p M=.3 Eg=.69 Xti=2 Iave=1 Vpk=20 mfg=Motorola type=Schottky)
.model 1N5818 D(Is=31.7u Rs=0.051 N=1.373 Cjo=160p M=.38 Eg=.69 Xti=2 Iave=1 Vpk=30 mfg=Motorola type=Schottky)
.model 1N5819 D(Is=31.7u Rs=0.051 N=1.373 Cjo=110p M=.35 Eg=.69 Xti=2 Iave=1 Vpk=40 mfg=Motorola type=Schottky)
.model BAT54 D(Is=.1u Rs=2.2 N=1 Cjo=12p M=.3 Eg=.69 Xti=2 Iave=300m Vpk=30 mfg=Vishay type=Schottky)
.model MBR0520L D(Is=82.5n Rs=0.115 N=.7228 Cjo=180p M=.63 Eg=.69 Xti=2 Iave=.5 Vpk=20 mfg=Motorola type=Schottky)
.model MBR0530L D(Is=1.55u Rs=0.0858 N=1.079 Cjo=180p Eg=.69 Xti=2 Iave=.5 Vpk=30 mfg=Motorola type=Schottky)
.model MBRS1100 D(Is=20.6u Rs=0.0079 N=2.303 Cjo=270p M=.575 Eg=.69 Xti=2 Iave=1 Vpk=100 mfg=Motorola type=Schottky)
.model MBRS130L D(Is=772n Rs=0.0299 N=.8442 Cjo=290p M=.7 Eg=.69 Xti=2 Iave=1 Vpk=30 mfg=Motorola type=Schottky)
.model MBRS140 D(Is=235n Rs=0.109 N=.7760 Cjo=160p M=.6 Eg=.69 Xti=2 Iave=1 Vpk=40 mfg=Motorola type=Schottky)
.model MBRS340 D(Is=22.6u Rs=0.042 N=1.094 Cjo=480p M=.61 Eg=.69 Xti=2 Iave=3 Vpk=40 mfg=Motorola type=Schottky)
.model MBRS360 D(Is=22.6u Rs=0.042 N=1.094 Cjo=480p M=.61 Eg=.69 Xti=2 Iave=3 Vpk=60 mfg=Motorola type=Schottky)
.model CMDSH2-3 D(Is=210nA Rs=0.5 N=1.09 Cjo=50p M=.5 Eg=.69 Xti=2 Iave=200m Vpk=30 mfg=Central type=Schottky)
.model MURS120 D(Is=33.8n Rs=0.0236 N=1.718 Cjo=45p M=.6 tt=45n Iave=1 Vpk=200 mfg=Motorola type=silicon )
.model MURS320 D(Is=1.06n Rs=0.0111 N=1.367 Cjo=135p M=.45 tt=45n Iave=3 Vpk=200 mfg=Motorola type=silicon )
.model MBR735 D(Is=159u Rs=0.02 N=1.76 Cjo=740p M=.6 Eg=.69 Xti=2 Iave=7.5 Vpk=35 mfg=Motorola type=Schottky)
.model MBR745 D(Is=159u Rs=0.02 N=1.76 Cjo=740p M=.6 Eg=.69 Xti=2 Iave=7.5 Vpk=45 mfg=Motorola type=Schottky)
.model BZX84C6V2L D(Is=1.5n Rs=.5 Cjo=185p nbv=3 bv=6.2 Ibv=1m Vpk=6.2 mfg=Motorola type=zener )
.model BZX84C8V2L D(Is=0.8n Rs=.5 Cjo=135p nbv=3 bv=8.2 Ibv=1m Vpk=8.2 mfg=Motorola type=zener )
.model BZX84C10L D(Is=0.6u Rs=.5 Cjo=150p nbv=5 bv=10 Ibv=1m Vpk=10 mfg=Motorola type=zener )
.model BZX84C12L D(Is=0.6u Rs=.5 Cjo=150p nbv=5 bv=12 Ibv=1m Vpk=12 mfg=Motorola type=zener )
.model BZX84C15L D(Is=0.6u Rs=.5 Cjo=110p nbv=6 bv=15 Ibv=1m Vpk=15 mfg=Motorola type=zener )
.model RB10L-40 D(Is=2.6uA Rs=0.0674 N=1.163 Cjo=180p M=.6 Eg=.69 Xti=2 Iave=1 Vpk=40 mfg=Rohm type=Schottky)
.model 1N750 D(Is=.88f Rs=.25 Cjo=175p M=.55 nbv=1.7 bv=4.7 Vj=.75 Isr=1.86n Nr=2 Ibv=20.245m Ibvl=1.96m Nbvl=15 Tbv1=-21.3u Vpk=4.7 mfg=Motorola type=zener)
.model MV2201 D(Is=1.365p Rs=1 Cjo=14.93p M=.4261 Vj=.75 Isr=16.02p Nr=2 Bv=25 Ibv=10u Vpk=25 mfg=Motorola type=varactor)
.model MBR0540 D(Is=9.11u Rs=0.121 N=1.33753 Eg=0.69 Xti=2 Cjo=194p Vj=0.25 M=.4 Iave=.5 Vpk=40 mfg=GI type=Schottky)
.model MUR460 D(Is=149n Rs=0.0384 N=2 EG=1.285 XTI=0.5 BV=800 IBV=1e-05 Cjo=126.4p Vj=1.34 M=0.52 tt=44.4n Iave=4 Vpk=600 mfg=GI type=silicon)
.model MBRB2545CT D(Is=19.4n Rs=0.01 N=0.733 Eg=0.718 Xti=0.535 Cjo=2.05n Vj=0.4 M=0.41 Iave=25 Vpk=45 mfg=GI type=Schottky)
.model MBR20100CT D(Is=10u Rs=0.005 N=1.5 Ikf=.3 Isr=10u Nr=3 Cjo=1e-11 Vj=0.7 Iave=10 Vpk=100 mfg=Motorola type=Schottky)
.model 30BQ060 D(Is=10u Rs=0.04 N=1.4 Cjo=180p Eg=.69 Xti=2 Iave=3 Vpk=60 mfg=International_Rectifier type=Schottky)
.model UPSC600 D(Is=2p Rs=0.33 N=1.5 Cjo=50p M=.3 Iave=1 Vpk=600 mfg=Microsemi type=SiC_Schottky)
.model NSPW500BS D(Is=0.27n Rs=5.65 N=6.79 Cjo=42p Iave=30m Vpk=5 mfg=Nichia type=LED)
.model QTLP690C D(Is=1e-22 Rs=6 N=1.5 Cjo=50p Iave=160m Vpk=5 mfg=Fairchild type=LED)
.model PMEG2020AEA D(Is=5.409u Rs=0.05676 N=1.02 Cjo=0.1908n M=0.4863 Eg=0.69 Xti=2 BV=22 IBV=50u Vj=0.3408 FC=0.5 Iave=2 Vpk=20 mfg=Philips type=Schottky)
.model PMEG2010EA D(Is=1.686u Rs=0.1249 N=1.015 Cjo=90.86p M=0.4542 Eg=0.69 Xti=2 BV=21 IBV=1u Vj=0.1939 FC=1 Iave=1 Vpk=20 mfg=Philips type=Schottky)
.model PMEG2010BEA D(Is=3.334u Rs=0.08222 N=0.9791 Cjo=0.1266n M=0.5 Eg=0.69 Xti=2 BV=22 IBV=0.0001 Vj=0.3619 FC=0.5 Iave=1 Vpk=20 mfg=Philips type=Schottky)
.model PMEG3010BEA D(Is=2.936u Rs=0.1166 N=0.9839 Cjo=0.1068n M=0.4948 Eg=0.69 Xti=2 BV=33 IBV=75u Vj=0.3459 FC=0.5 Iave=1 Vpk=30 mfg=Philips type=Schottky)
.model PMEG4010BEA D(Is=2.831u Rs=0.1975 N=0.9816 Cjo=84.37p M=0.4789 Eg=0.69 Xti=2 BV=44 IBV=50u Vj=0.3116 FC=0.5 Iave=1 Vpk=40 mfg=Philips type=Schottky)
.model PMEG2005AEA D(Is=3.334u Rs=0.08222 N=0.9791 Cjo=0.1266n M=0.5 Eg=0.69 Xti=2 BV=22 IBV=0.0001 Vj=0.3619 FC=0.5 Iave=0.5 Vpk=20 mfg=Philips type=Schottky)
.model PMEG3005AEA D(Is=2.936u Rs=0.1166 N=0.9839 Cjo=0.1068n M=0.4948 Eg=0.69 Xti=2 BV=33 IBV=75u Vj=0.3459 FC=0.5 Iave=0.5 Vpk=30 mfg=Philips type=Schottky)
.model PMEG4005AEA D(Is=2.831u Rs=0.1975 N=0.9816 Cjo=84.37p M=0.4789 Eg=0.69 Xti=2 BV=44 IBV=50u Vj=0.3116 FC=0.5 Iave=0.5 Vpk=40 mfg=Philips type=Schottky)
.model PMEG2010AEB D(Is=87.24u Rs=0.2728 N=0.9699 Cjo=29.99p M=0.3755 Eg=0.69 Xti=2 BV=22 IBV=0.0004 Vj=0.2604 FC=0.5 Iave=1 Vpk=20 mfg=Philips type=Schottky)
.model PMEG2005EB D(Is=0.9985u Rs=0.2146 N=0.9283 Cjo=61.05p M=0.4159 Eg=0.69 Xti=2 BV=32 IBV=0.001 Vj=0.1 FC=0.5 Iave=0.5 Vpk=20 mfg=Philips type=Schottky)
.model PMEG6010AED D(Is=0.5u Rs=0.3422 N=0.9751 Cjo=0.175n M=0.4725 Eg=0.69 Xti=2 BV=66 IBV=0.0004 Vj=0.3761 FC=0.5 Iave=1 Vpk=60 mfg=Philips type=Schottky)
.model PRLL5817 D(Is=2.119u Rs=0.0419 N=1.02 Cjo=0.252n M=0.5104 Eg=0.69 Xti=2 BV=1000 IBV=0.001 Vj=0.4792 FC=0.5 Iave=1 Vpk=20 mfg=Philips type=Schottky)
.model GSD2004W-V D(Is=1e-14 Rs=1.6 N=1 Cjo=5p tt=50n Iave=225m Vpk=300 mfg=Vishay type=silicon)
.model LXHL-BW02 D(Is=4.5e-20 Rs=0.85 N=2.6 Cjo=1.18n Iave=400mA mfg=Lumileds type=LED)
.MODEL DI_2W005G D ( IS=28.4n RS=21.1m BV=50.0 IBV=5.00u CJO=29.6p M=0.333 N=1.95 TT=4.32u Vpk=50.0V Iave=2.00A mfg=DiodesInc type=silicon )
.MODEL DI_2W01G D ( IS=28.4n RS=21.1m BV=100 IBV=5.00u CJO=29.6p M=0.333 N=1.95 TT=4.32u Vpk=100V Iave=2.00A mfg=DiodesInc type=silicon )
.MODEL DI_2W02G D ( IS=28.4n RS=21.1m BV=200 IBV=5.00u CJO=29.6p M=0.333 N=1.95 TT=4.32u Vpk=200V Iave=2.00A mfg=DiodesInc type=silicon )
.MODEL DI_2W04G D ( IS=28.4n RS=21.1m BV=400 IBV=5.00u CJO=29.6p M=0.333 N=1.95 TT=4.32u Vpk=400V Iave=2.00A mfg=DiodesInc type=silicon )
.MODEL DI_2W06G D ( IS=28.4n RS=21.1m BV=600 IBV=5.00u CJO=29.6p M=0.333 N=1.95 TT=4.32u Vpk=600V Iave=2.00A mfg=DiodesInc type=silicon )
.MODEL DI_2W08G D ( IS=28.4n RS=21.1m BV=800 IBV=5.00u CJO=29.6p M=0.333 N=1.95 TT=4.32u Vpk=800V Iave=2.00A mfg=DiodesInc type=silicon )
.MODEL DI_2W10G D ( IS=28.4n RS=21.1m BV=1.00k IBV=5.00u CJO=29.6p M=0.333 N=1.95 TT=4.32u Vpk=1.00kV Iave=2.00A mfg=DiodesInc type=silicon )
.MODEL DI_DF005M D ( IS=4.42n RS=42.0m BV=50.0 IBV=10.0u CJO=65.0p M=0.333 N=1.70 TT=4.32u Vpk=50.0V Iave=1.00A mfg=DiodesInc type=silicon )
.MODEL DI_DF005S D ( IS=4.42n RS=42.0m BV=50.0 IBV=10.0u CJO=65.0p M=0.333 N=1.70 TT=4.32u Vpk=50.0V Iave=1.00A mfg=DiodesInc type=silicon )
.MODEL DI_DF01M D ( IS=4.42n RS=42.0m BV=100 IBV=10.0u CJO=65.0p M=0.333 N=1.70 TT=4.32u Vpk=100V Iave=1.00A mfg=DiodesInc type=silicon )
.MODEL DI_DF01S D ( IS=4.42n RS=42.0m BV=100 IBV=10.0u CJO=65.0p M=0.333 N=1.70 TT=4.32u Vpk=100V Iave=1.00A mfg=DiodesInc type=silicon )
.MODEL DI_DF02M D ( IS=4.42n RS=42.0m BV=200 IBV=10.0u CJO=65.0p M=0.333 N=1.70 TT=4.32u Vpk=200V Iave=1.00A mfg=DiodesInc type=silicon )
.MODEL DI_DF02S D ( IS=4.42n RS=42.0m BV=200 IBV=10.0u CJO=65.0p M=0.333 N=1.70 TT=4.32u Vpk=200V Iave=1.00A mfg=DiodesInc type=silicon )
.MODEL DI_DF04M D ( IS=4.42n RS=42.0m BV=400 IBV=10.0u CJO=65.0p M=0.333 N=1.70 TT=4.32u Vpk=400V Iave=1.00A mfg=DiodesInc type=silicon )
.MODEL DI_DF04S D ( IS=4.42n RS=42.0m BV=400 IBV=10.0u CJO=65.0p M=0.333 N=1.70 TT=4.32u Vpk=400V Iave=1.00A mfg=DiodesInc type=silicon )
.MODEL DI_DF06M D ( IS=4.42n RS=42.0m BV=600 IBV=10.0u CJO=65.0p M=0.333 N=1.70 TT=4.32u Vpk=600V Iave=1.00A mfg=DiodesInc type=silicon )
.MODEL DI_DF06S D ( IS=4.42n RS=42.0m BV=600 IBV=10.0u CJO=65.0p M=0.333 N=1.70 TT=4.32u Vpk=600V Iave=1.00A mfg=DiodesInc type=silicon )
.MODEL DI_DF08M D ( IS=4.42n RS=42.0m BV=800 IBV=10.0u CJO=65.0p M=0.333 N=1.70 TT=4.32u Vpk=800V Iave=1.00A mfg=DiodesInc type=silicon )
.MODEL DI_DF08S D ( IS=4.42n RS=42.0m BV=800 IBV=10.0u CJO=65.0p M=0.333 N=1.70 TT=4.32u Vpk=800V Iave=1.00A mfg=DiodesInc type=silicon )
.MODEL DI_DF10M D ( IS=4.42n RS=42.0m BV=1.00k IBV=10.0u CJO=65.0p M=0.333 N=1.70 TT=4.32u Vpk=1.00kV Iave=1.00A mfg=DiodesInc type=silicon )
.MODEL DI_DF10S D ( IS=4.42n RS=42.0m BV=1.00k IBV=10.0u CJO=65.0p M=0.333 N=1.70 TT=4.32u Vpk=1.00kV Iave=1.00A mfg=DiodesInc type=silicon )
.MODEL DI_DF15005M D ( IS=2.06n RS=28.1m BV=50.0 IBV=10.0u CJO=65.0p M=0.333 N=1.70 TT=4.32u Vpk=50.0V Iave=1.50A mfg=DiodesInc type=silicon )
.MODEL DI_DF15005S D ( IS=2.06n RS=28.1m BV=50.0 IBV=10.0u CJO=65.0p M=0.333 N=1.70 TT=4.32u Vpk=50.0V Iave=1.50A mfg=DiodesInc type=silicon )
.MODEL DI_DF1501M D ( IS=2.06n RS=28.1m BV=100 IBV=10.0u CJO=65.0p M=0.333 N=1.70 TT=4.32u Vpk=100V Iave=1.50A mfg=DiodesInc type=silicon )
.MODEL DI_DF1501S D ( IS=2.06n RS=28.1m BV=100 IBV=10.0u CJO=65.0p M=0.333 N=1.70 TT=4.32u Vpk=100V Iave=1.50A mfg=DiodesInc type=silicon )
.MODEL DI_DF1502M D ( IS=2.06n RS=28.1m BV=200 IBV=10.0u CJO=65.0p M=0.333 N=1.70 TT=4.32u Vpk=200V Iave=1.50A mfg=DiodesInc type=silicon )
.MODEL DI_DF1502S D ( IS=2.06n RS=28.1m BV=200 IBV=10.0u CJO=65.0p M=0.333 N=1.70 TT=4.32u Vpk=200V Iave=1.50A mfg=DiodesInc type=silicon )
.MODEL DI_DF1504M D ( IS=2.06n RS=28.1m BV=400 IBV=10.0u CJO=65.0p M=0.333 N=1.70 TT=4.32u Vpk=400V Iave=1.50A mfg=DiodesInc type=silicon )
.MODEL DI_DF1504S D ( IS=2.06n RS=28.1m BV=400 IBV=10.0u CJO=65.0p M=0.333 N=1.70 TT=4.32u Vpk=400V Iave=1.50A mfg=DiodesInc type=silicon )
.MODEL DI_DF1506M D ( IS=2.06n RS=28.1m BV=600 IBV=10.0u CJO=65.0p M=0.333 N=1.70 TT=4.32u Vpk=600V Iave=1.50A mfg=DiodesInc type=silicon )
.MODEL DI_DF1506S D ( IS=2.06n RS=28.1m BV=600 IBV=10.0u CJO=65.0p M=0.333 N=1.70 TT=4.32u Vpk=600V Iave=1.50A mfg=DiodesInc type=silicon )
.MODEL DI_DF1508M D ( IS=2.06n RS=28.1m BV=800 IBV=10.0u CJO=65.0p M=0.333 N=1.70 TT=4.32u Vpk=800V Iave=1.50A mfg=DiodesInc type=silicon )
.MODEL DI_DF1508S D ( IS=2.06n RS=28.1m BV=800 IBV=10.0u CJO=65.0p M=0.333 N=1.70 TT=4.32u Vpk=800V Iave=1.50A mfg=DiodesInc type=silicon )
.MODEL DI_DF1510M D ( IS=2.06n RS=28.1m BV=1.00k IBV=10.0u CJO=65.0p M=0.333 N=1.70 TT=4.32u Vpk=1.00kV Iave=1.50A mfg=DiodesInc type=silicon )
.MODEL DI_DF1510S D ( IS=2.06n RS=28.1m BV=1.00k IBV=10.0u CJO=65.0p M=0.333 N=1.70 TT=4.32u Vpk=1.00kV Iave=1.50A mfg=DiodesInc type=silicon )
.MODEL DI_GBJ15005 D ( IS=5.11u RS=3.43m BV=50.0 IBV=10.0u CJO=106p M=0.333 N=2.44 TT=4.32u Vpk=50.0V Iave=15.0A mfg=DiodesInc type=silicon )
.MODEL DI_GBJ1501 D ( IS=5.11u RS=3.43m BV=100 IBV=10.0u CJO=106p M=0.333 N=2.44 TT=4.32u Vpk=100V Iave=15.0A mfg=DiodesInc type=silicon )
.MODEL DI_GBJ1502 D ( IS=5.11u RS=3.43m BV=200 IBV=10.0u CJO=106p M=0.333 N=2.44 TT=4.32u Vpk=200V Iave=15.0A mfg=DiodesInc type=silicon )
.MODEL DI_GBJ1504 D ( IS=5.11u RS=3.43m BV=400 IBV=10.0u CJO=106p M=0.333 N=2.44 TT=4.32u Vpk=400V Iave=15.0A mfg=DiodesInc type=silicon )
.MODEL DI_GBJ1506 D ( IS=5.11u RS=3.43m BV=600 IBV=10.0u CJO=106p M=0.333 N=2.44 TT=4.32u Vpk=600V Iave=15.0A mfg=DiodesInc type=silicon )
.MODEL DI_GBJ1508 D ( IS=5.11u RS=3.43m BV=800 IBV=10.0u CJO=106p M=0.333 N=2.44 TT=4.32u Vpk=800V Iave=15.0A mfg=DiodesInc type=silicon )
.MODEL DI_GBJ1510 D ( IS=5.11u RS=3.43m BV=1.00k IBV=10.0u CJO=106p M=0.333 N=2.44 TT=4.32u Vpk=1.00kV Iave=15.0A mfg=DiodesInc type=silicon )
.MODEL DI_GBJ20005 D ( IS=15.1u RS=2.96m BV=50.0 IBV=10.0u CJO=111p M=0.333 N=2.84 TT=4.32u Vpk=50.0V Iave=20.0A mfg=DiodesInc type=silicon )
.MODEL DI_GBJ2002 D ( IS=15.1u RS=2.96m BV=200 IBV=10.0u CJO=111p M=0.333 N=2.84 TT=4.32u Vpk=200V Iave=20.0A mfg=DiodesInc type=silicon )
.MODEL DI_GBJ2004 D ( IS=15.1u RS=2.96m BV=400 IBV=10.0u CJO=111p M=0.333 N=2.84 TT=4.32u Vpk=400V Iave=20.0A mfg=DiodesInc type=silicon )
.MODEL DI_GBJ2006 D ( IS=15.1u RS=2.96m BV=600 IBV=10.0u CJO=111p M=0.333 N=2.84 TT=4.32u Vpk=600V Iave=20.0A mfg=DiodesInc type=silicon )
.MODEL DI_GBJ2008 D ( IS=15.1u RS=2.96m BV=800 IBV=10.0u CJO=111p M=0.333 N=2.84 TT=4.32u Vpk=800V Iave=20.0A mfg=DiodesInc type=silicon )
.MODEL DI_GBJ2010 D ( IS=15.1u RS=2.96m BV=1.00k IBV=10.0u CJO=111p M=0.333 N=2.84 TT=4.32u Vpk=1.00kV Iave=20.0A mfg=DiodesInc type=silicon )
.MODEL DI_GBJ2510 D ( IS=379n RS=2.84m BV=1.00k IBV=10.0u CJO=146p M=0.333 N=2.07 TT=4.32u Vpk=1.00kV Iave=25.0A mfg=DiodesInc type=silicon )
.MODEL DI_GBPC3506 D ( IS=162u RS=3.32m BV=600 IBV=5.00u CJO=477p M=0.333 N=3.01 TT=4.32u Vpk=600V Iave=35.0A mfg=DiodesInc type=silicon )
.MODEL DI_GBU1002 D ( IS=1.71f RS=7.00m BV=200 IBV=5.00u CJO=133p M=0.333 N=0.900 TT=4.32u Vpk=200V Iave=10.0A mfg=DiodesInc type=silicon )
.MODEL DI_GBU4005 D ( IS=23.3n RS=7.20m BV=50.0 IBV=5.00u CJO=148p M=0.333 N=1.80 TT=4.32u Vpk=50.0V Iave=4.00A mfg=DiodesInc type=silicon )
.MODEL DI_GBU401 D ( IS=23.3n RS=7.20m BV=100 IBV=5.00u CJO=148p M=0.333 N=1.80 TT=4.32u Vpk=100V Iave=4.00A mfg=DiodesInc type=silicon )
.MODEL DI_GBU402 D ( IS=23.3n RS=7.20m BV=200 IBV=5.00u CJO=148p M=0.333 N=1.80 TT=4.32u Vpk=200V Iave=4.00A mfg=DiodesInc type=silicon )
.MODEL DI_GBU404 D ( IS=23.3n RS=7.20m BV=400 IBV=5.00u CJO=148p M=0.333 N=1.80 TT=4.32u Vpk=400V Iave=4.00A mfg=DiodesInc type=silicon )
.MODEL DI_GBU406 D ( IS=23.3n RS=7.20m BV=600 IBV=5.00u CJO=148p M=0.333 N=1.80 TT=4.32u Vpk=600V Iave=4.00A mfg=DiodesInc type=silicon )
.MODEL DI_GBU408 D ( IS=23.3n RS=7.20m BV=800 IBV=5.00u CJO=148p M=0.333 N=1.80 TT=4.32u Vpk=800V Iave=4.00A mfg=DiodesInc type=silicon )
.MODEL DI_GBU410 D ( IS=23.3n RS=7.20m BV=1.00k IBV=5.00u CJO=148p M=0.333 N=1.80 TT=4.32u Vpk=1.00kV Iave=4.00A mfg=DiodesInc type=silicon )
.MODEL DI_GBU8005 D ( IS=17.8p RS=7.59m BV=50.0 IBV=5.00u CJO=240p M=0.333 N=1.25 TT=4.32u Vpk=50.0V Iave=8.00A mfg=DiodesInc type=silicon )
.MODEL DI_GBU801 D ( IS=17.8p RS=7.59m BV=100 IBV=5.00u CJO=240p M=0.333 N=1.25 TT=4.32u Vpk=100V Iave=8.00A mfg=DiodesInc type=silicon )
.MODEL DI_GBU802 D ( IS=17.8p RS=7.59m BV=200 IBV=5.00u CJO=240p M=0.333 N=1.25 TT=4.32u Vpk=200V Iave=8.00A mfg=DiodesInc type=silicon )
.MODEL DI_GBU804 D ( IS=17.8p RS=7.59m BV=400 IBV=5.00u CJO=240p M=0.333 N=1.25 TT=4.32u Vpk=400V Iave=8.00A mfg=DiodesInc type=silicon )
.MODEL DI_GBU806 D ( IS=17.8p RS=7.59m BV=600 IBV=5.00u CJO=240p M=0.333 N=1.25 TT=4.32u Vpk=600V Iave=8.00A mfg=DiodesInc type=silicon )
.MODEL DI_GBU808 D ( IS=17.8p RS=7.59m BV=800 IBV=5.00u CJO=240p M=0.333 N=1.25 TT=4.32u Vpk=800V Iave=8.00A mfg=DiodesInc type=silicon )
.MODEL DI_GBU810 D ( IS=17.8p RS=7.59m BV=1.00k IBV=5.00u CJO=240p M=0.333 N=1.25 TT=4.32u Vpk=1.00kV Iave=8.00A mfg=DiodesInc type=silicon )
.MODEL DI_HD01 D ( IS=3.47n RS=42.6m BV=100 IBV=5.00u CJO=25.2p M=0.333 N=1.70 TT=4.32u Vpk=100V Iave=0.800A mfg=DiodesInc type=silicon )
.MODEL DI_HD02 D ( IS=3.47n RS=42.6m BV=200 IBV=5.00u CJO=25.2p M=0.333 N=1.70 TT=4.32u Vpk=200V Iave=0.800A mfg=DiodesInc type=silicon )
.MODEL DI_HD04 D ( IS=3.47n RS=42.6m BV=400 IBV=5.00u CJO=25.2p M=0.333 N=1.70 TT=4.32u Vpk=400V Iave=0.800A mfg=DiodesInc type=silicon )
.MODEL DI_HD06 D ( IS=3.47n RS=42.6m BV=600 IBV=5.00u CJO=25.2p M=0.333 N=1.70 TT=4.32u Vpk=600V Iave=0.800A mfg=DiodesInc type=silicon )
.MODEL DI_KBP005G D ( IS=39.2u RS=28.1m BV=50.0 IBV=5.00u CJO=26.5p M=0.333 N=4.38 TT=4.32u Vpk=50.0V Iave=1.50A mfg=DiodesInc type=silicon )
.MODEL DI_KBP01G D ( IS=39.2u RS=28.1m BV=100 IBV=5.00u CJO=26.5p M=0.333 N=4.38 TT=4.32u Vpk=100V Iave=1.50A mfg=DiodesInc type=silicon )
.MODEL DI_KBP02G D ( IS=39.2u RS=28.1m BV=200 IBV=5.00u CJO=26.5p M=0.333 N=4.38 TT=4.32u Vpk=200V Iave=1.50A mfg=DiodesInc type=silicon )
.MODEL DI_KBP04G D ( IS=39.2u RS=28.1m BV=400 IBV=5.00u CJO=26.5p M=0.333 N=4.38 TT=4.32u Vpk=400V Iave=1.50A mfg=DiodesInc type=silicon )
.MODEL DI_KBP06G D ( IS=39.2u RS=28.1m BV=600 IBV=5.00u CJO=26.5p M=0.333 N=4.38 TT=4.32u Vpk=600V Iave=1.50A mfg=DiodesInc type=silicon )
.MODEL DI_KBP08G D ( IS=39.2u RS=28.1m BV=800 IBV=5.00u CJO=26.5p M=0.333 N=4.38 TT=4.32u Vpk=800V Iave=1.50A mfg=DiodesInc type=silicon )
.MODEL DI_KBP10G D ( IS=39.2u RS=28.1m BV=1.00k IBV=5.00u CJO=26.5p M=0.333 N=4.38 TT=4.32u Vpk=1.00kV Iave=1.50A mfg=DiodesInc type=silicon )
.MODEL DI_KBP2005G D ( IS=143n RS=21.1m BV=50.0 IBV=5.00u CJO=46.2p M=0.333 N=2.12 TT=4.32u Vpk=50.0V Iave=2.00A mfg=DiodesInc type=silicon )
.MODEL DI_KBP201G D ( IS=143n RS=21.1m BV=100 IBV=5.00u CJO=46.2p M=0.333 N=2.12 TT=4.32u Vpk=100V Iave=2.00A mfg=DiodesInc type=silicon )
.MODEL DI_KBP202G D ( IS=143n RS=21.1m BV=200 IBV=5.00u CJO=46.2p M=0.333 N=2.12 TT=4.32u Vpk=200V Iave=2.00A mfg=DiodesInc type=silicon )
.MODEL DI_KBP204G D ( IS=143n RS=21.1m BV=400 IBV=5.00u CJO=46.2p M=0.333 N=2.12 TT=4.32u Vpk=400V Iave=2.00A mfg=DiodesInc type=silicon )
.MODEL DI_KBP206G D ( IS=143n RS=21.1m BV=600 IBV=5.00u CJO=46.2p M=0.333 N=2.12 TT=4.32u Vpk=600V Iave=2.00A mfg=DiodesInc type=silicon )
.MODEL DI_KBP208G D ( IS=143n RS=21.1m BV=800 IBV=5.00u CJO=46.2p M=0.333 N=2.12 TT=4.32u Vpk=800V Iave=2.00A mfg=DiodesInc type=silicon )
.MODEL DI_KBP210G D ( IS=143n RS=21.1m BV=1.00k IBV=5.00u CJO=46.2p M=0.333 N=2.12 TT=4.32u Vpk=1.00kV Iave=2.00A mfg=DiodesInc type=silicon )
.MODEL DI_PBPC301 D ( IS=492n RS=14.1m BV=50.0 IBV=10.0u CJO=102p M=0.333 N=2.45 TT=4.32u ) Vpk=50.0V Iave=3.00A mfg=DiodesInc type=silicon )
.MODEL DI_PBPC302 D ( IS=492n RS=14.1m BV=100 IBV=10.0u CJO=102p M=0.333 N=2.45 TT=4.32u ) Vpk=100V Iave=3.00A mfg=DiodesInc type=silicon )
.MODEL DI_PBPC303 D ( IS=492n RS=14.1m BV=200 IBV=10.0u CJO=102p M=0.333 N=2.45 TT=4.32u ) Vpk=200V Iave=3.00A mfg=DiodesInc type=silicon )
.MODEL DI_PBPC304 D ( IS=492n RS=14.1m BV=400 IBV=10.0u CJO=102p M=0.333 N=2.45 TT=4.32u ) Vpk=400V Iave=3.00A mfg=DiodesInc type=silicon )
.MODEL DI_PBPC305 D ( IS=492n RS=14.1m BV=600 IBV=10.0u CJO=102p M=0.333 N=2.45 TT=4.32u ) Vpk=600V Iave=3.00A mfg=DiodesInc type=silicon )
.MODEL DI_PBPC306 D ( IS=492n RS=14.1m BV=800 IBV=10.0u CJO=102p M=0.333 N=2.45 TT=4.32u ) Vpk=800V Iave=3.00A mfg=DiodesInc type=silicon )
.MODEL DI_PBPC307 D ( IS=492n RS=14.1m BV=1.00k IBV=10.0u CJO=102p M=0.333 N=2.45 TT=4.32u ) Vpk=1.00kV Iave=3.00A mfg=DiodesInc type=silicon )
.MODEL DI_PBPC601 D ( IS=2.37n RS=5.14m BV=50.0 IBV=10.0u CJO=102p M=0.333 N=1.63 TT=4.32u Vpk=50.0V Iave=6.00A mfg=DiodesInc type=silicon )
.MODEL DI_PBPC602 D ( IS=2.37n RS=5.14m BV=100 IBV=10.0u CJO=102p M=0.333 N=1.63 TT=4.32u Vpk=100V Iave=6.00A mfg=DiodesInc type=silicon )
.MODEL DI_PBPC603 D ( IS=2.37n RS=5.14m BV=200 IBV=10.0u CJO=102p M=0.333 N=1.63 TT=4.32u Vpk=200V Iave=6.00A mfg=DiodesInc type=silicon )
.MODEL DI_PBPC604 D ( IS=2.37n RS=5.14m BV=400 IBV=10.0u CJO=102p M=0.333 N=1.63 TT=4.32u Vpk=400V Iave=6.00A mfg=DiodesInc type=silicon )
.MODEL DI_PBPC605 D ( IS=2.37n RS=5.14m BV=600 IBV=10.0u CJO=102p M=0.333 N=1.63 TT=4.32u Vpk=600V Iave=6.00A mfg=DiodesInc type=silicon )
.MODEL DI_PBPC606 D ( IS=2.37n RS=5.14m BV=800 IBV=10.0u CJO=102p M=0.333 N=1.63 TT=4.32u Vpk=800V Iave=6.00A mfg=DiodesInc type=silicon )
.MODEL DI_PBPC607 D ( IS=2.37n RS=5.14m BV=1.00k IBV=10.0u CJO=102p M=0.333 N=1.63 TT=4.32u Vpk=1.00kV Iave=6.00A mfg=DiodesInc type=silicon )
.MODEL DI_RH02 D ( IS=2.25n RS=0.100 BV=200 IBV=5.00u CJO=24.0p M=0.333 N=1.70 TT=216n Vpk=200V Iave=0.500A mfg=DiodesInc type=silicon )
.MODEL DI_RH04 D ( IS=2.25n RS=0.100 BV=400 IBV=5.00u CJO=24.0p M=0.333 N=1.70 TT=216n Vpk=400V Iave=0.500A mfg=DiodesInc type=silicon )
.MODEL DI_RH06 D ( IS=2.25n RS=0.100 BV=600 IBV=5.00u CJO=24.0p M=0.333 N=1.70 TT=360n Vpk=600V Iave=0.500A mfg=DiodesInc type=silicon )
.MODEL DI_W005G D ( IS=8.63u RS=28.0m BV=50.0 IBV=5.00u CJO=22.5p M=0.333 N=3.21 TT=4.32u Vpk=50.0V Iave=1.50A mfg=DiodesInc type=silicon )
.MODEL DI_W01G D ( IS=8.63u RS=28.0m BV=100 IBV=5.00u CJO=22.5p M=0.333 N=3.21 TT=4.32u Vpk=100V Iave=1.50A mfg=DiodesInc type=silicon )
.MODEL DI_W02G D ( IS=8.63u RS=28.0m BV=200 IBV=5.00u CJO=22.5p M=0.333 N=3.21 TT=4.32u Vpk=200V Iave=1.50A mfg=DiodesInc type=silicon )
.MODEL DI_W04G D ( IS=8.63u RS=28.0m BV=400 IBV=5.00u CJO=22.5p M=0.333 N=3.21 TT=4.32u Vpk=400V Iave=1.50A mfg=DiodesInc type=silicon )
.MODEL DI_W06G D ( IS=8.63u RS=28.0m BV=600 IBV=5.00u CJO=22.5p M=0.333 N=3.21 TT=4.32u Vpk=600V Iave=1.50A mfg=DiodesInc type=silicon )
.MODEL DI_W08G D ( IS=8.63u RS=28.0m BV=800 IBV=5.00u CJO=22.5p M=0.333 N=3.21 TT=4.32u Vpk=800V Iave=1.50A mfg=DiodesInc type=silicon )
.MODEL DI_W10G D ( IS=8.63u RS=28.0m BV=1.00k IBV=5.00u CJO=22.5p M=0.333 N=3.21 TT=4.32u Vpk=1.00kV Iave=1.50A mfg=DiodesInc type=silicon )
.MODEL DI_1N4933 D ( IS=830n RS=34.0m BV=50.0 IBV=5.00u CJO=26.5p M=0.333 N=2.46 TT=288n Vpk=50.0V Iave=1.00A mfg=DiodesInc type=silicon )
.MODEL DI_1N4934 D ( IS=830n RS=34.0m BV=100 IBV=5.00u CJO=26.5p M=0.333 N=2.46 TT=288n Vpk=100V Iave=1.00A mfg=DiodesInc type=silicon )
.MODEL DI_1N4935 D ( IS=830n RS=34.0m BV=200 IBV=5.00u CJO=26.5p M=0.333 N=2.46 TT=288n Vpk=200V Iave=1.00A mfg=DiodesInc type=silicon )
.MODEL DI_1N4936 D ( IS=830n RS=34.0m BV=400 IBV=5.00u CJO=26.5p M=0.333 N=2.46 TT=288n Vpk=400V Iave=1.00A mfg=DiodesInc type=silicon )
.MODEL DI_1N4937 D ( IS=830n RS=34.0m BV=600 IBV=5.00u CJO=26.5p M=0.333 N=2.46 TT=288n Vpk=600V Iave=1.00A mfg=DiodesInc type=silicon )
.MODEL DI_ES1A D ( IS=123n RS=42.0m BV=50.0 IBV=5.00u CJO=18.5p M=0.333 N=2.12 TT=28.8n Vpk=50.0V Iave=1.00A mfg=DiodesInc type=silicon )
.MODEL DI_ES1B D ( IS=123n RS=42.0m BV=100 IBV=5.00u CJO=18.5p M=0.333 N=2.12 TT=28.8n Vpk=100V Iave=1.00A mfg=DiodesInc type=silicon )
.MODEL DI_ES1C D ( IS=123n RS=42.0m BV=150 IBV=5.00u CJO=18.5p M=0.333 N=2.12 TT=28.8n Vpk=150V Iave=1.00A mfg=DiodesInc type=silicon )
.MODEL DI_ES1D D ( IS=123n RS=42.0m BV=200 IBV=5.00u CJO=18.5p M=0.333 N=2.12 TT=28.8n Vpk=200V Iave=1.00A mfg=DiodesInc type=silicon )
.MODEL DI_ES1G D ( IS=373n RS=64.3m BV=400 IBV=5.00u CJO=18.5p M=0.333 N=2.84 TT=28.8n Vpk=400V Iave=1.00A mfg=DiodesInc type=silicon )
.MODEL DI_ES2A D ( IS=267n RS=21.0m BV=50.0 IBV=5.00u CJO=83.5p M=0.333 N=1.70 TT=36.0n Vpk=50.0V Iave=2.00A mfg=DiodesInc type=silicon )
.MODEL DI_ES2AA D ( IS=267n RS=21.0m BV=50.0 IBV=5.00u CJO=83.5p M=0.333 N=1.70 TT=36.0n Vpk=50.0V Iave=2.00A mfg=DiodesInc type=silicon )
.MODEL DI_ES2B D ( IS=267n RS=21.0m BV=100 IBV=5.00u CJO=83.5p M=0.333 N=1.70 TT=36.0n Vpk=100V Iave=2.00A mfg=DiodesInc type=silicon )
.MODEL DI_ES2BA D ( IS=267n RS=21.0m BV=100 IBV=5.00u CJO=83.5p M=0.333 N=1.70 TT=36.0n Vpk=100V Iave=2.00A mfg=DiodesInc type=silicon )
.MODEL DI_ES2C D ( IS=267n RS=21.0m BV=150 IBV=5.00u CJO=83.5p M=0.333 N=1.70 TT=36.0n Vpk=150V Iave=2.00A mfg=DiodesInc type=silicon )
.MODEL DI_ES2CA D ( IS=267n RS=21.0m BV=150 IBV=5.00u CJO=83.5p M=0.333 N=1.70 TT=36.0n Vpk=150V Iave=2.00A mfg=DiodesInc type=silicon )
.MODEL DI_ES2D D ( IS=267n RS=21.0m BV=200 IBV=5.00u CJO=83.5p M=0.333 N=1.70 TT=36.0n Vpk=200V Iave=2.00A mfg=DiodesInc type=silicon )
.MODEL DI_ES2DA D ( IS=267n RS=21.0m BV=200 IBV=5.00u CJO=83.5p M=0.333 N=1.70 TT=36.0n Vpk=200V Iave=2.00A mfg=DiodesInc type=silicon )
.MODEL DI_ES2G D ( IS=3.92n RS=21.0m BV=400 IBV=5.00u CJO=83.5p M=0.333 N=1.95 TT=36.0n Vpk=400V Iave=2.00A mfg=DiodesInc type=silicon )
.MODEL DI_ES3A D ( IS=7.27p RS=22.4m BV=50.0 IBV=10.0u CJO=83.2p M=0.333 N=0.700 TT=36.0n Vpk=50.0V Iave=3.00A mfg=DiodesInc type=silicon )
.MODEL DI_ES3AB D ( IS=7.27p RS=22.4m BV=50.0 IBV=10.0u CJO=83.2p M=0.333 N=0.700 TT=36.0n Vpk=50.0V Iave=3.00A mfg=DiodesInc type=silicon )
.MODEL DI_ES3B D ( IS=7.27p RS=22.4m BV=100 IBV=10.0u CJO=83.2p M=0.333 N=0.700 TT=36.0n Vpk=100V Iave=3.00A mfg=DiodesInc type=silicon )
.MODEL DI_ES3BB D ( IS=7.27p RS=22.4m BV=100 IBV=10.0u CJO=83.2p M=0.333 N=0.700 TT=36.0n Vpk=100V Iave=3.00A mfg=DiodesInc type=silicon )
.MODEL DI_ES3C D ( IS=7.27p RS=22.4m BV=150 IBV=10.0u CJO=83.2p M=0.333 N=0.700 TT=36.0n Vpk=150V Iave=3.00A mfg=DiodesInc type=silicon )
.MODEL DI_ES3CB D ( IS=7.27p RS=22.4m BV=150 IBV=10.0u CJO=83.2p M=0.333 N=0.700 TT=36.0n Vpk=150V Iave=3.00A mfg=DiodesInc type=silicon )
.MODEL DI_ES3D D ( IS=7.27p RS=22.4m BV=200 IBV=10.0u CJO=83.2p M=0.333 N=0.700 TT=36.0n Vpk=200V Iave=3.00A mfg=DiodesInc type=silicon )
.MODEL DI_ES3DB D ( IS=7.27p RS=22.4m BV=200 IBV=10.0u CJO=83.2p M=0.333 N=0.700 TT=36.0n Vpk=200V Iave=3.00A mfg=DiodesInc type=silicon )
.MODEL DI_MURB1610CT D ( IS=3.19n RS=3.67m BV=100 IBV=5.00u CJO=225p M=0.333 N=1.59 TT=36.0n Vpk=100V Iave=16.0A mfg=DiodesInc type=silicon )
.MODEL DI_MURB1620CT D ( IS=3.19n RS=3.67m BV=200 IBV=5.00u CJO=225p M=0.333 N=1.59 TT=36.0n Vpk=200V Iave=16.0A mfg=DiodesInc type=silicon )
.MODEL DI_MURS120 D ( IS=17.1n RS=20.6m BV=200 IBV=2.00u CJO=60.0p M=0.333 N=1.73 TT=36.0n Vpk=200V Iave=1.00A mfg=DiodesInc type=silicon )
.MODEL DI_MURS140 D ( IS=17.1n RS=20.6m BV=400 IBV=2.00u CJO=45.0p M=0.333 N=1.73 TT=72.0n Vpk=400V Iave=1.00A mfg=DiodesInc type=silicon )
.MODEL DI_MURS160 D ( IS=17.1n RS=20.6m BV=600 IBV=2.00u CJO=45.0p M=0.333 N=1.73 TT=72.0n Vpk=600V Iave=1.00A mfg=DiodesInc type=silicon )
.MODEL DI_MURS320 D ( IS=11.8n RS=7.89m BV=200 IBV=5.00u CJO=45.0p M=0.333 N=1.56 TT=36.0n Vpk=200V Iave=3.00A mfg=DiodesInc type=silicon )
.MODEL DI_PR1001G D ( IS=5.00n RS=29.8m BV=50.0 IBV=5.00u CJO=27.8p M=0.333 N=1.72 TT=216n Vpk=50.0V Iave=1.00A mfg=DiodesInc type=silicon )
.MODEL DI_PR1002G D ( IS=5.00n RS=29.8m BV=100 IBV=5.00u CJO=27.8p M=0.333 N=1.72 TT=216n Vpk=100V Iave=1.00A mfg=DiodesInc type=silicon )
.MODEL DI_PR1003G D ( IS=5.00n RS=29.8m BV=200 IBV=5.00u CJO=27.8p M=0.333 N=1.72 TT=216n Vpk=200V Iave=1.00A mfg=DiodesInc type=silicon )
.MODEL DI_PR1004G D ( IS=5.00n RS=29.8m BV=400 IBV=5.00u CJO=27.8p M=0.333 N=1.72 TT=216n Vpk=400V Iave=1.00A mfg=DiodesInc type=silicon )
.MODEL DI_PR1005G D ( IS=5.00n RS=29.8m BV=600 IBV=5.00u CJO=19.9p M=0.333 N=1.72 TT=360n Vpk=600V Iave=1.00A mfg=DiodesInc type=silicon )
.MODEL DI_PR1006G D ( IS=5.00n RS=29.8m BV=800 IBV=5.00u CJO=19.9p M=0.333 N=1.72 TT=720n Vpk=800V Iave=1.00A mfg=DiodesInc type=silicon )
.MODEL DI_PR1007G D ( IS=5.00n RS=29.8m BV=1.00k IBV=5.00u CJO=19.9p M=0.333 N=1.72 TT=720n Vpk=1.00kV Iave=1.00A mfg=DiodesInc type=silicon )
.MODEL DI_PR6001 D ( IS=863n RS=12.6m BV=50.0 IBV=10.0u CJO=663p M=0.333 N=1.70 TT=216n Vpk=50.0V Iave=6.00A mfg=DiodesInc type=silicon )
.MODEL DI_RS1A D ( IS=948n RS=81.3m BV=50.0 IBV=5.00u CJO=27.7p M=0.333 N=2.48 TT=216n Vpk=50.0V Iave=1.00A mfg=DiodesInc type=silicon )
.MODEL DI_RS1AB D ( IS=948n RS=81.3m BV=50.0 IBV=5.00u CJO=27.7p M=0.333 N=2.48 TT=216n Vpk=50.0V Iave=1.00A mfg=DiodesInc type=silicon )
.MODEL DI_RS1B D ( IS=948n RS=81.3m BV=100 IBV=5.00u CJO=27.7p M=0.333 N=2.48 TT=216n Vpk=100V Iave=1.00A mfg=DiodesInc type=silicon )
.MODEL DI_RS1BB D ( IS=948n RS=81.3m BV=100 IBV=5.00u CJO=27.7p M=0.333 N=2.48 TT=216n Vpk=100V Iave=1.00A mfg=DiodesInc type=silicon )
.MODEL DI_RS1D D ( IS=948n RS=81.3m BV=200 IBV=5.00u CJO=27.7p M=0.333 N=2.48 TT=216n Vpk=200V Iave=1.00A mfg=DiodesInc type=silicon )
.MODEL DI_RS1DB D ( IS=948n RS=81.3m BV=200 IBV=5.00u CJO=27.7p M=0.333 N=2.48 TT=216n Vpk=200V Iave=1.00A mfg=DiodesInc type=silicon )
.MODEL DI_RS1G D ( IS=948n RS=81.3m BV=400 IBV=5.00u CJO=27.7p M=0.333 N=2.48 TT=216n Vpk=400V Iave=1.00A mfg=DiodesInc type=silicon )
.MODEL DI_RS1GB D ( IS=948n RS=81.3m BV=400 IBV=5.00u CJO=27.7p M=0.333 N=2.48 TT=216n Vpk=400V Iave=1.00A mfg=DiodesInc type=silicon )
.MODEL DI_RS1J D ( IS=948n RS=81.3m BV=600 IBV=5.00u CJO=27.7p M=0.333 N=2.48 TT=360n Vpk=600V Iave=1.00A mfg=DiodesInc type=silicon )
.MODEL DI_RS1JB D ( IS=948n RS=81.3m BV=600 IBV=5.00u CJO=27.7p M=0.333 N=2.48 TT=360n Vpk=600V Iave=1.00A mfg=DiodesInc type=silicon )
.MODEL DI_RS1K D ( IS=948n RS=81.3m BV=800 IBV=5.00u CJO=27.7p M=0.333 N=2.48 TT=720n Vpk=800V Iave=1.00A mfg=DiodesInc type=silicon )
.MODEL DI_RS1KB D ( IS=948n RS=81.3m BV=800 IBV=5.00u CJO=27.7p M=0.333 N=2.48 TT=720n Vpk=800V Iave=1.00A mfg=DiodesInc type=silicon )
.MODEL DI_RS1M D ( IS=948n RS=81.3m BV=1.00k IBV=5.00u CJO=27.7p M=0.333 N=2.48 TT=720n Vpk=1.00kV Iave=1.00A mfg=DiodesInc type=silicon )
.MODEL DI_RS1MB D ( IS=948n RS=81.3m BV=1.00k IBV=5.00u CJO=27.7p M=0.333 N=2.48 TT=720n Vpk=1.00kV Iave=1.00A mfg=DiodesInc type=silicon )
.MODEL DI_RS2A D ( IS=169u RS=4.81m BV=50.0 IBV=5.00u CJO=55.5p M=0.333 N=6.02 TT=216n Vpk=50.0V Iave=1.50A mfg=DiodesInc type=silicon )
.MODEL DI_RS2AA D ( IS=169u RS=4.81m BV=50.0 IBV=5.00u CJO=55.5p M=0.333 N=6.02 TT=216n Vpk=50.0V Iave=1.50A mfg=DiodesInc type=silicon )
.MODEL DI_RS2B D ( IS=169u RS=4.81m BV=100 IBV=5.00u CJO=55.5p M=0.333 N=6.02 TT=216n Vpk=100V Iave=1.50A mfg=DiodesInc type=silicon )
.MODEL DI_RS2BA D ( IS=169u RS=4.81m BV=100 IBV=5.00u CJO=55.5p M=0.333 N=6.02 TT=216n Vpk=100V Iave=1.50A mfg=DiodesInc type=silicon )
.MODEL DI_RS2D D ( IS=169u RS=4.81m BV=200 IBV=5.00u CJO=55.5p M=0.333 N=6.02 TT=216n Vpk=200V Iave=1.50A mfg=DiodesInc type=silicon )
.MODEL DI_RS2DA D ( IS=169u RS=4.81m BV=200 IBV=5.00u CJO=55.5p M=0.333 N=6.02 TT=216n Vpk=200V Iave=1.50A mfg=DiodesInc type=silicon )
.MODEL DI_RS2G D ( IS=169u RS=4.81m BV=400 IBV=5.00u CJO=55.5p M=0.333 N=6.02 TT=216n Vpk=400V Iave=1.50A mfg=DiodesInc type=silicon )
.MODEL DI_RS2GA D ( IS=169u RS=4.81m BV=400 IBV=5.00u CJO=55.5p M=0.333 N=6.02 TT=216n Vpk=400V Iave=1.50A mfg=DiodesInc type=silicon )
.MODEL DI_RS2J D ( IS=169u RS=4.81m BV=600 IBV=5.00u CJO=55.5p M=0.333 N=6.02 TT=360n Vpk=600V Iave=1.50A mfg=DiodesInc type=silicon )