*SRC=2W005G;DI_2W005G;Diodes;Si;  50.0V  2.00A  3.00us   Diodes Inc. Bridge -- for one element
.MODEL DI_2W005G D  ( IS=28.4n RS=21.1m BV=50.0 IBV=5.00u
+ CJO=29.6p M=0.333 N=1.95 TT=4.32u  Vpk=50.0V Iave=2.00A Tt=3.00us mfg=DiodesInc type=silicon )

*SRC=2W01G;DI_2W01G;Diodes;Si;  100V  2.00A  3.00us   Diodes Inc. Bridge -- for one element
.MODEL DI_2W01G D  ( IS=28.4n RS=21.1m BV=100 IBV=5.00u
+ CJO=29.6p M=0.333 N=1.95 TT=4.32u  Vpk=100V Iave=2.00A Tt=3.00us mfg=DiodesInc type=silicon )

*SRC=2W02G;DI_2W02G;Diodes;Si;  200V  2.00A  3.00us   Diodes Inc. Bridge -- for one element
.MODEL DI_2W02G D  ( IS=28.4n RS=21.1m BV=200 IBV=5.00u
+ CJO=29.6p M=0.333 N=1.95 TT=4.32u  Vpk=200V Iave=2.00A Tt=3.00us mfg=DiodesInc type=silicon )

*SRC=2W04G;DI_2W04G;Diodes;Si;  400V  2.00A  3.00us   Diodes Inc. Bridge -- for one element
.MODEL DI_2W04G D  ( IS=28.4n RS=21.1m BV=400 IBV=5.00u
+ CJO=29.6p M=0.333 N=1.95 TT=4.32u  Vpk=400V Iave=2.00A Tt=3.00us mfg=DiodesInc type=silicon )

*SRC=2W06G;DI_2W06G;Diodes;Si;  600V  2.00A  3.00us   Diodes Inc. Bridge -- for one element
.MODEL DI_2W06G D  ( IS=28.4n RS=21.1m BV=600 IBV=5.00u
+ CJO=29.6p M=0.333 N=1.95 TT=4.32u  Vpk=600V Iave=2.00A Tt=3.00us mfg=DiodesInc type=silicon )

*SRC=2W08G;DI_2W08G;Diodes;Si;  800V  2.00A  3.00us   Diodes Inc. Bridge -- for one element
.MODEL DI_2W08G D  ( IS=28.4n RS=21.1m BV=800 IBV=5.00u
+ CJO=29.6p M=0.333 N=1.95 TT=4.32u  Vpk=800V Iave=2.00A Tt=3.00us mfg=DiodesInc type=silicon )

*SRC=2W10G;DI_2W10G;Diodes;Si;  1.00kV  2.00A  3.00us   Diodes Inc. Bridge -- for one element
.MODEL DI_2W10G D  ( IS=28.4n RS=21.1m BV=1.00k IBV=5.00u
+ CJO=29.6p M=0.333 N=1.95 TT=4.32u  Vpk=1.00kV Iave=2.00A Tt=3.00us mfg=DiodesInc type=silicon )

*SRC=DF005M;DI_DF005M;Diodes;Si;  50.0V  1.00A  3.00us   Diodes Inc. Bridge -- for one element 
.MODEL DI_DF005M D  ( IS=4.42n RS=42.0m BV=50.0 IBV=10.0u 
+ CJO=65.0p M=0.333 N=1.70 TT=4.32u  Vpk=50.0V Iave=1.00A Tt=3.00us mfg=DiodesInc type=silicon )

*SRC=DF005S;DI_DF005S;Diodes;Si;  50.0V  1.00A  3.00us   Diodes Inc. Bridge -- for one element 
.MODEL DI_DF005S D  ( IS=4.42n RS=42.0m BV=50.0 IBV=10.0u 
+ CJO=65.0p M=0.333 N=1.70 TT=4.32u  Vpk=50.0V Iave=1.00A Tt=3.00us mfg=DiodesInc type=silicon )

*SRC=DF01M;DI_DF01M;Diodes;Si;  100V  1.00A  3.00us   Diodes Inc. Bridge -- for one element 
.MODEL DI_DF01M D  ( IS=4.42n RS=42.0m BV=100 IBV=10.0u 
+ CJO=65.0p M=0.333 N=1.70 TT=4.32u  Vpk=100V Iave=1.00A Tt=3.00us mfg=DiodesInc type=silicon )

*SRC=DF01S;DI_DF01S;Diodes;Si;  100V  1.00A  3.00us   Diodes Inc. Bridge -- for one element 
.MODEL DI_DF01S D  ( IS=4.42n RS=42.0m BV=100 IBV=10.0u 
+ CJO=65.0p M=0.333 N=1.70 TT=4.32u  Vpk=100V Iave=1.00A Tt=3.00us mfg=DiodesInc type=silicon )

*SRC=DF02M;DI_DF02M;Diodes;Si;  200V  1.00A  3.00us   Diodes Inc. Bridge -- for one element 
.MODEL DI_DF02M D  ( IS=4.42n RS=42.0m BV=200 IBV=10.0u 
+ CJO=65.0p M=0.333 N=1.70 TT=4.32u  Vpk=200V Iave=1.00A Tt=3.00us mfg=DiodesInc type=silicon )

*SRC=DF02S;DI_DF02S;Diodes;Si;  200V  1.00A  3.00us   Diodes Inc. Bridge -- for one element 
.MODEL DI_DF02S D  ( IS=4.42n RS=42.0m BV=200 IBV=10.0u 
+ CJO=65.0p M=0.333 N=1.70 TT=4.32u  Vpk=200V Iave=1.00A Tt=3.00us mfg=DiodesInc type=silicon )

*SRC=DF04M;DI_DF04M;Diodes;Si;  400V  1.00A  3.00us   Diodes Inc. Bridge -- for one element 
.MODEL DI_DF04M D  ( IS=4.42n RS=42.0m BV=400 IBV=10.0u 
+ CJO=65.0p M=0.333 N=1.70 TT=4.32u  Vpk=400V Iave=1.00A Tt=3.00us mfg=DiodesInc type=silicon )

*SRC=DF04S;DI_DF04S;Diodes;Si;  400V  1.00A  3.00us   Diodes Inc. Bridge -- for one element 
.MODEL DI_DF04S D  ( IS=4.42n RS=42.0m BV=400 IBV=10.0u 
+ CJO=65.0p M=0.333 N=1.70 TT=4.32u  Vpk=400V Iave=1.00A Tt=3.00us mfg=DiodesInc type=silicon )

*SRC=DF06M;DI_DF06M;Diodes;Si;  600V  1.00A  3.00us   Diodes Inc. Bridge -- for one element 
.MODEL DI_DF06M D  ( IS=4.42n RS=42.0m BV=600 IBV=10.0u 
+ CJO=65.0p M=0.333 N=1.70 TT=4.32u  Vpk=600V Iave=1.00A Tt=3.00us mfg=DiodesInc type=silicon )

*SRC=DF06S;DI_DF06S;Diodes;Si;  600V  1.00A  3.00us   Diodes Inc. Bridge -- for one element 
.MODEL DI_DF06S D  ( IS=4.42n RS=42.0m BV=600 IBV=10.0u 
+ CJO=65.0p M=0.333 N=1.70 TT=4.32u  Vpk=600V Iave=1.00A Tt=3.00us mfg=DiodesInc type=silicon )

*SRC=DF08M;DI_DF08M;Diodes;Si;  800V  1.00A  3.00us   Diodes Inc. Bridge -- for one element 
.MODEL DI_DF08M D  ( IS=4.42n RS=42.0m BV=800 IBV=10.0u 
+ CJO=65.0p M=0.333 N=1.70 TT=4.32u  Vpk=800V Iave=1.00A Tt=3.00us mfg=DiodesInc type=silicon )

*SRC=DF08S;DI_DF08S;Diodes;Si;  800V  1.00A  3.00us   Diodes Inc. Bridge -- for one element 
.MODEL DI_DF08S D  ( IS=4.42n RS=42.0m BV=800 IBV=10.0u 
+ CJO=65.0p M=0.333 N=1.70 TT=4.32u  Vpk=800V Iave=1.00A Tt=3.00us mfg=DiodesInc type=silicon )

*SRC=DF10M;DI_DF10M;Diodes;Si;  1.00kV  1.00A  3.00us   Diodes Inc. Bridge -- for one element 
.MODEL DI_DF10M D  ( IS=4.42n RS=42.0m BV=1.00k IBV=10.0u 
+ CJO=65.0p M=0.333 N=1.70 TT=4.32u  Vpk=1.00kV Iave=1.00A Tt=3.00us mfg=DiodesInc type=silicon )

*SRC=DF10S;DI_DF10S;Diodes;Si;  1.00kV  1.00A  3.00us   Diodes Inc. Bridge -- for one element 
.MODEL DI_DF10S D  ( IS=4.42n RS=42.0m BV=1.00k IBV=10.0u 
+ CJO=65.0p M=0.333 N=1.70 TT=4.32u  Vpk=1.00kV Iave=1.00A Tt=3.00us mfg=DiodesInc type=silicon )

*SRC=DF15005M;DI_DF15005M;Diodes;Si;  50.0V  1.50A  3.00us   Diodes Inc. Bridge -- for one element
.MODEL DI_DF15005M D  ( IS=2.06n RS=28.1m BV=50.0 IBV=10.0u
+ CJO=65.0p M=0.333 N=1.70 TT=4.32u  Vpk=50.0V Iave=1.50A Tt=3.00us mfg=DiodesInc type=silicon )

*SRC=DF15005S;DI_DF15005S;Diodes;Si;  50.0V  1.50A  3.00us   Diodes Inc. Bridge -- for one element
.MODEL DI_DF15005S D  ( IS=2.06n RS=28.1m BV=50.0 IBV=10.0u
+ CJO=65.0p M=0.333 N=1.70 TT=4.32u  Vpk=50.0V Iave=1.50A Tt=3.00us mfg=DiodesInc type=silicon )

*SRC=DF1501M;DI_DF1501M;Diodes;Si;  100V  1.50A  3.00us   Diodes Inc. Bridge -- for one element
.MODEL DI_DF1501M D  ( IS=2.06n RS=28.1m BV=100 IBV=10.0u
+ CJO=65.0p M=0.333 N=1.70 TT=4.32u  Vpk=100V Iave=1.50A Tt=3.00us mfg=DiodesInc type=silicon )

*SRC=DF1501S;DI_DF1501S;Diodes;Si;  100V  1.50A  3.00us   Diodes Inc. Bridge -- for one element
.MODEL DI_DF1501S D  ( IS=2.06n RS=28.1m BV=100 IBV=10.0u
+ CJO=65.0p M=0.333 N=1.70 TT=4.32u  Vpk=100V Iave=1.50A Tt=3.00us mfg=DiodesInc type=silicon )

*SRC=DF1502M;DI_DF1502M;Diodes;Si;  200V  1.50A  3.00us   Diodes Inc. Bridge -- for one element
.MODEL DI_DF1502M D  ( IS=2.06n RS=28.1m BV=200 IBV=10.0u
+ CJO=65.0p M=0.333 N=1.70 TT=4.32u  Vpk=200V Iave=1.50A Tt=3.00us mfg=DiodesInc type=silicon )

*SRC=DF1502S;DI_DF1502S;Diodes;Si;  200V  1.50A  3.00us   Diodes Inc. Bridge -- for one element
.MODEL DI_DF1502S D  ( IS=2.06n RS=28.1m BV=200 IBV=10.0u
+ CJO=65.0p M=0.333 N=1.70 TT=4.32u  Vpk=200V Iave=1.50A Tt=3.00us mfg=DiodesInc type=silicon )

*SRC=DF1504M;DI_DF1504M;Diodes;Si;  400V  1.50A  3.00us   Diodes Inc. Bridge -- for one element
.MODEL DI_DF1504M D  ( IS=2.06n RS=28.1m BV=400 IBV=10.0u
+ CJO=65.0p M=0.333 N=1.70 TT=4.32u  Vpk=400V Iave=1.50A Tt=3.00us mfg=DiodesInc type=silicon )

*SRC=DF1504S;DI_DF1504S;Diodes;Si;  400V  1.50A  3.00us   Diodes Inc. Bridge -- for one element
.MODEL DI_DF1504S D  ( IS=2.06n RS=28.1m BV=400 IBV=10.0u
+ CJO=65.0p M=0.333 N=1.70 TT=4.32u  Vpk=400V Iave=1.50A Tt=3.00us mfg=DiodesInc type=silicon )

*SRC=DF1506M;DI_DF1506M;Diodes;Si;  600V  1.50A  3.00us   Diodes Inc. Bridge -- for one element
.MODEL DI_DF1506M D  ( IS=2.06n RS=28.1m BV=600 IBV=10.0u
+ CJO=65.0p M=0.333 N=1.70 TT=4.32u  Vpk=600V Iave=1.50A Tt=3.00us mfg=DiodesInc type=silicon )

*SRC=DF1506S;DI_DF1506S;Diodes;Si;  600V  1.50A  3.00us   Diodes Inc. Bridge -- for one element
.MODEL DI_DF1506S D  ( IS=2.06n RS=28.1m BV=600 IBV=10.0u
+ CJO=65.0p M=0.333 N=1.70 TT=4.32u  Vpk=600V Iave=1.50A Tt=3.00us mfg=DiodesInc type=silicon )

*SRC=DF1508M;DI_DF1508M;Diodes;Si;  800V  1.50A  3.00us   Diodes Inc. Bridge -- for one element
.MODEL DI_DF1508M D  ( IS=2.06n RS=28.1m BV=800 IBV=10.0u
+ CJO=65.0p M=0.333 N=1.70 TT=4.32u  Vpk=800V Iave=1.50A Tt=3.00us mfg=DiodesInc type=silicon )

*SRC=DF1508S;DI_DF1508S;Diodes;Si;  800V  1.50A  3.00us   Diodes Inc. Bridge -- for one element
.MODEL DI_DF1508S D  ( IS=2.06n RS=28.1m BV=800 IBV=10.0u
+ CJO=65.0p M=0.333 N=1.70 TT=4.32u  Vpk=800V Iave=1.50A Tt=3.00us mfg=DiodesInc type=silicon )

*SRC=DF1510M;DI_DF1510M;Diodes;Si;  1.00kV  1.50A  3.00us   Diodes Inc. Bridge -- for one element
.MODEL DI_DF1510M D  ( IS=2.06n RS=28.1m BV=1.00k IBV=10.0u
+ CJO=65.0p M=0.333 N=1.70 TT=4.32u  Vpk=1.00kV Iave=1.50A Tt=3.00us mfg=DiodesInc type=silicon )

*SRC=DF1510S;DI_DF1510S;Diodes;Si;  1.00kV  1.50A  3.00us   Diodes Inc. Bridge -- for one element
.MODEL DI_DF1510S D  ( IS=2.06n RS=28.1m BV=1.00k IBV=10.0u
+ CJO=65.0p M=0.333 N=1.70 TT=4.32u  Vpk=1.00kV Iave=1.50A Tt=3.00us mfg=DiodesInc type=silicon )

*SRC=GBJ15005;DI_GBJ15005;Diodes;Si;  50.0V  15.0A  3.00us   Diodes Inc. Bridge Rectifier -- for one element
.MODEL DI_GBJ15005 D  ( IS=5.11u RS=3.43m BV=50.0 IBV=10.0u
+ CJO=106p M=0.333 N=2.44 TT=4.32u  Vpk=50.0V Iave=15.0A Tt=3.00us mfg=DiodesInc type=silicon )

*SRC=GBJ1501;DI_GBJ1501;Diodes;Si;  100V  15.0A  3.00us   Diodes Inc. Bridge Rectifier -- for one element
.MODEL DI_GBJ1501 D  ( IS=5.11u RS=3.43m BV=100 IBV=10.0u
+ CJO=106p M=0.333 N=2.44 TT=4.32u  Vpk=100V Iave=15.0A Tt=3.00us mfg=DiodesInc type=silicon )

*SRC=GBJ1502;DI_GBJ1502;Diodes;Si;  200V  15.0A  3.00us   Diodes Inc. Bridge Rectifier -- for one element
.MODEL DI_GBJ1502 D  ( IS=5.11u RS=3.43m BV=200 IBV=10.0u
+ CJO=106p M=0.333 N=2.44 TT=4.32u  Vpk=200V Iave=15.0A Tt=3.00us mfg=DiodesInc type=silicon )

*SRC=GBJ1504;DI_GBJ1504;Diodes;Si;  400V  15.0A  3.00us   Diodes Inc. Bridge Rectifier -- for one element
.MODEL DI_GBJ1504 D  ( IS=5.11u RS=3.43m BV=400 IBV=10.0u
+ CJO=106p M=0.333 N=2.44 TT=4.32u  Vpk=400V Iave=15.0A Tt=3.00us mfg=DiodesInc type=silicon )

*SRC=GBJ1506;DI_GBJ1506;Diodes;Si;  600V  15.0A  3.00us   Diodes Inc. Bridge Rectifier -- for one element
.MODEL DI_GBJ1506 D  ( IS=5.11u RS=3.43m BV=600 IBV=10.0u
+ CJO=106p M=0.333 N=2.44 TT=4.32u  Vpk=600V Iave=15.0A Tt=3.00us mfg=DiodesInc type=silicon )

*SRC=GBJ1508;DI_GBJ1508;Diodes;Si;  800V  15.0A  3.00us   Diodes Inc. Bridge Rectifier -- for one element
.MODEL DI_GBJ1508 D  ( IS=5.11u RS=3.43m BV=800 IBV=10.0u
+ CJO=106p M=0.333 N=2.44 TT=4.32u  Vpk=800V Iave=15.0A Tt=3.00us mfg=DiodesInc type=silicon )

*SRC=GBJ1510;DI_GBJ1510;Diodes;Si;  1.00kV  15.0A  3.00us   Diodes Inc. Bridge Rectifier -- for one element
.MODEL DI_GBJ1510 D  ( IS=5.11u RS=3.43m BV=1.00k IBV=10.0u
+ CJO=106p M=0.333 N=2.44 TT=4.32u  Vpk=1.00kV Iave=15.0A Tt=3.00us mfg=DiodesInc type=silicon )

*SRC=GBJ20005;DI_GBJ20005;Diodes;Si;  50.0V  20.0A  3.00us   Diodes Inc. Bridge Rect. This model covers only one element.  There are four elements per pkg. 
.MODEL DI_GBJ20005 D  ( IS=15.1u RS=2.96m BV=50.0 IBV=10.0u
+ CJO=111p M=0.333 N=2.84 TT=4.32u  Vpk=50.0V Iave=20.0A Tt=3.00us mfg=DiodesInc type=silicon )

*SRC=GBJ2001;DI_GBJ2001;Diodes;Si;  100V  20.0A  3.00us   Diodes Inc.
Bridge Rect. This model covers only one element.  There are four elements per pkg. .MODEL DI_GBJ2001 D  ( IS=15.1u RS=2.96m BV=100 IBV=10.0u
+ CJO=111p M=0.333 N=2.84 TT=4.32u  Vpk=100V Iave=20.0A Tt=3.00us mfg=DiodesInc type=silicon )

*SRC=GBJ2002;DI_GBJ2002;Diodes;Si;  200V  20.0A  3.00us   Diodes Inc. Bridge Rect. This model covers only one element.  There are four elements per pkg.
.MODEL DI_GBJ2002 D  ( IS=15.1u RS=2.96m BV=200 IBV=10.0u
+ CJO=111p M=0.333 N=2.84 TT=4.32u  Vpk=200V Iave=20.0A Tt=3.00us mfg=DiodesInc type=silicon )

*SRC=GBJ2004;DI_GBJ2004;Diodes;Si;  400V  20.0A  3.00us   Diodes Inc. Bridge Rect. This model covers only one element.  There are four elements per pkg.
.MODEL DI_GBJ2004 D  ( IS=15.1u RS=2.96m BV=400 IBV=10.0u
+ CJO=111p M=0.333 N=2.84 TT=4.32u  Vpk=400V Iave=20.0A Tt=3.00us mfg=DiodesInc type=silicon )

*SRC=GBJ2006;DI_GBJ2006;Diodes;Si;  600V  20.0A  3.00us   Diodes Inc. Bridge Rect. This model covers only one element.  There are four elements per pkg.
.MODEL DI_GBJ2006 D  ( IS=15.1u RS=2.96m BV=600 IBV=10.0u
+ CJO=111p M=0.333 N=2.84 TT=4.32u  Vpk=600V Iave=20.0A Tt=3.00us mfg=DiodesInc type=silicon )

*SRC=GBJ2008;DI_GBJ2008;Diodes;Si;  800V  20.0A  3.00us   Diodes Inc. Bridge Rect. This model covers only one element.  There are four elements per pkg.
.MODEL DI_GBJ2008 D  ( IS=15.1u RS=2.96m BV=800 IBV=10.0u
+ CJO=111p M=0.333 N=2.84 TT=4.32u  Vpk=800V Iave=20.0A Tt=3.00us mfg=DiodesInc type=silicon )

*SRC=GBJ2010;DI_GBJ2010;Diodes;Si;  1.00kV  20.0A  3.00us   Diodes Inc. Bridge Rect. This model covers only one element.  There are four elements per pkg.
.MODEL DI_GBJ2010 D  ( IS=15.1u RS=2.96m BV=1.00k IBV=10.0u
+ CJO=111p M=0.333 N=2.84 TT=4.32u  Vpk=1.00kV Iave=20.0A Tt=3.00us mfg=DiodesInc type=silicon )

*SRC=GBJ2510;DI_GBJ2510;Diodes;Si;  1.00kV  25.0A  3.00us   Diodes Inc. Bridge Rectifier--Per Element
.MODEL DI_GBJ2510 D  ( IS=379n RS=2.84m BV=1.00k IBV=10.0u
+ CJO=146p M=0.333 N=2.07 TT=4.32u  Vpk=1.00kV Iave=25.0A Tt=3.00us mfg=DiodesInc type=silicon )

*SRC=GBPC3506;DI_GBPC3506;Diodes;Si;  600V  35.0A  3.00us   Diodes Inc Rectifier
.MODEL DI_GBPC3506 D  ( IS=162u RS=3.32m BV=600 IBV=5.00u
+ CJO=477p M=0.333 N=3.01 TT=4.32u  Vpk=600V Iave=35.0A Tt=3.00us mfg=DiodesInc type=silicon )

*SRC=GBU1002;DI_GBU1002;Diodes;Si;  200V  10.0A  3.00us   Diodes Inc. Bridge Rectifier -- Per Element
.MODEL DI_GBU1002 D  ( IS=1.71f RS=7.00m BV=200 IBV=5.00u
+ CJO=133p M=0.333 N=0.900 TT=4.32u  Vpk=200V Iave=10.0A Tt=3.00us mfg=DiodesInc type=silicon )

*SRC=GBU4005;DI_GBU4005;Diodes;Si;  50.0V  4.00A  3.00us   Diodes Inc. Bridge -- for one element
.MODEL DI_GBU4005 D  ( IS=23.3n RS=7.20m BV=50.0 IBV=5.00u
+ CJO=148p M=0.333 N=1.80 TT=4.32u  Vpk=50.0V Iave=4.00A Tt=3.00us mfg=DiodesInc type=silicon )

*SRC=GBU401;DI_GBU401;Diodes;Si;  100V  4.00A  3.00us   Diodes Inc. Bridge -- for one element
.MODEL DI_GBU401 D  ( IS=23.3n RS=7.20m BV=100 IBV=5.00u
+ CJO=148p M=0.333 N=1.80 TT=4.32u  Vpk=100V Iave=4.00A Tt=3.00us mfg=DiodesInc type=silicon )

*SRC=GBU402;DI_GBU402;Diodes;Si;  200V  4.00A  3.00us   Diodes Inc. Bridge -- for one element
.MODEL DI_GBU402 D  ( IS=23.3n RS=7.20m BV=200 IBV=5.00u
+ CJO=148p M=0.333 N=1.80 TT=4.32u  Vpk=200V Iave=4.00A Tt=3.00us mfg=DiodesInc type=silicon )

*SRC=GBU404;DI_GBU404;Diodes;Si;  400V  4.00A  3.00us   Diodes Inc. Bridge -- for one element
.MODEL DI_GBU404 D  ( IS=23.3n RS=7.20m BV=400 IBV=5.00u
+ CJO=148p M=0.333 N=1.80 TT=4.32u  Vpk=400V Iave=4.00A Tt=3.00us mfg=DiodesInc type=silicon )

*SRC=GBU406;DI_GBU406;Diodes;Si;  600V  4.00A  3.00us   Diodes Inc. Bridge -- for one element
.MODEL DI_GBU406 D  ( IS=23.3n RS=7.20m BV=600 IBV=5.00u
+ CJO=148p M=0.333 N=1.80 TT=4.32u  Vpk=600V Iave=4.00A Tt=3.00us mfg=DiodesInc type=silicon )

*SRC=GBU408;DI_GBU408;Diodes;Si;  800V  4.00A  3.00us   Diodes Inc. Bridge -- for one element
.MODEL DI_GBU408 D  ( IS=23.3n RS=7.20m BV=800 IBV=5.00u
+ CJO=148p M=0.333 N=1.80 TT=4.32u  Vpk=800V Iave=4.00A Tt=3.00us mfg=DiodesInc type=silicon )

*SRC=GBU410;DI_GBU410;Diodes;Si;  1.00kV  4.00A  3.00us   Diodes Inc. Bridge -- for one element
.MODEL DI_GBU410 D  ( IS=23.3n RS=7.20m BV=1.00k IBV=5.00u
+ CJO=148p M=0.333 N=1.80 TT=4.32u  Vpk=1.00kV Iave=4.00A Tt=3.00us mfg=DiodesInc type=silicon )

*SRC=GBU8005;DI_GBU8005;Diodes;Si;  50.0V  8.00A  3.00us   Diodes Inc. Bridge -- for one element
.MODEL DI_GBU8005 D  ( IS=17.8p RS=7.59m BV=50.0 IBV=5.00u
+ CJO=240p M=0.333 N=1.25 TT=4.32u  Vpk=50.0V Iave=8.00A Tt=3.00us mfg=DiodesInc type=silicon )

*SRC=GBU801;DI_GBU801;Diodes;Si;  100V  8.00A  3.00us   Diodes Inc. Bridge -- for one element
.MODEL DI_GBU801 D  ( IS=17.8p RS=7.59m BV=100 IBV=5.00u
+ CJO=240p M=0.333 N=1.25 TT=4.32u  Vpk=100V Iave=8.00A Tt=3.00us mfg=DiodesInc type=silicon )

*SRC=GBU802;DI_GBU802;Diodes;Si;  200V  8.00A  3.00us   Diodes Inc. Bridge -- for one element
.MODEL DI_GBU802 D  ( IS=17.8p RS=7.59m BV=200 IBV=5.00u
+ CJO=240p M=0.333 N=1.25 TT=4.32u  Vpk=200V Iave=8.00A Tt=3.00us mfg=DiodesInc type=silicon )

*SRC=GBU804;DI_GBU804;Diodes;Si;  400V  8.00A  3.00us   Diodes Inc. Bridge -- for one element
.MODEL DI_GBU804 D  ( IS=17.8p RS=7.59m BV=400 IBV=5.00u
+ CJO=240p M=0.333 N=1.25 TT=4.32u  Vpk=400V Iave=8.00A Tt=3.00us mfg=DiodesInc type=silicon )

*SRC=GBU806;DI_GBU806;Diodes;Si;  600V  8.00A  3.00us   Diodes Inc. Bridge -- for one element
.MODEL DI_GBU806 D  ( IS=17.8p RS=7.59m BV=600 IBV=5.00u
+ CJO=240p M=0.333 N=1.25 TT=4.32u  Vpk=600V Iave=8.00A Tt=3.00us mfg=DiodesInc type=silicon )

*SRC=GBU808;DI_GBU808;Diodes;Si;  800V  8.00A  3.00us   Diodes Inc. Bridge -- for one element
.MODEL DI_GBU808 D  ( IS=17.8p RS=7.59m BV=800 IBV=5.00u
+ CJO=240p M=0.333 N=1.25 TT=4.32u  Vpk=800V Iave=8.00A Tt=3.00us mfg=DiodesInc type=silicon )

*SRC=GBU810;DI_GBU810;Diodes;Si;  1.00kV  8.00A  3.00us   Diodes Inc. Bridge -- for one element
.MODEL DI_GBU810 D  ( IS=17.8p RS=7.59m BV=1.00k IBV=5.00u
+ CJO=240p M=0.333 N=1.25 TT=4.32u  Vpk=1.00kV Iave=8.00A Tt=3.00us mfg=DiodesInc type=silicon )

*SRC=HD01;DI_HD01;Diodes;Si;  100V  0.800A  3.00us   Diodes Inc. Bridge Rectifier -- for one element
.MODEL DI_HD01 D  ( IS=3.47n RS=42.6m BV=100 IBV=5.00u
+ CJO=25.2p M=0.333 N=1.70 TT=4.32u  Vpk=100V Iave=0.800A Tt=3.00us mfg=DiodesInc type=silicon )

*SRC=HD02;DI_HD02;Diodes;Si;  200V  0.800A  3.00us   Diodes Inc. Bridge Rectifier -- for one element
.MODEL DI_HD02 D  ( IS=3.47n RS=42.6m BV=200 IBV=5.00u
+ CJO=25.2p M=0.333 N=1.70 TT=4.32u  Vpk=200V Iave=0.800A Tt=3.00us mfg=DiodesInc type=silicon )

*SRC=HD04;DI_HD04;Diodes;Si;  400V  0.800A  3.00us   Diodes Inc. Bridge Rectifier -- for one element
.MODEL DI_HD04 D  ( IS=3.47n RS=42.6m BV=400 IBV=5.00u
+ CJO=25.2p M=0.333 N=1.70 TT=4.32u  Vpk=400V Iave=0.800A Tt=3.00us mfg=DiodesInc type=silicon )

*SRC=HD06;DI_HD06;Diodes;Si;  600V  0.800A  3.00us   Diodes Inc. Bridge Rectifier -- for one element
.MODEL DI_HD06 D  ( IS=3.47n RS=42.6m BV=600 IBV=5.00u
+ CJO=25.2p M=0.333 N=1.70 TT=4.32u  Vpk=600V Iave=0.800A Tt=3.00us mfg=DiodesInc type=silicon )

*SRC=KBP005G;DI_KBP005G;Diodes;Si;  50.0V  1.50A  3.00us   Diodes Inc. Bridge -- for one element
.MODEL DI_KBP005G D  ( IS=39.2u RS=28.1m BV=50.0 IBV=5.00u
+ CJO=26.5p M=0.333 N=4.38 TT=4.32u  Vpk=50.0V Iave=1.50A Tt=3.00us mfg=DiodesInc type=silicon )

*SRC=KBP01G;DI_KBP01G;Diodes;Si;  100V  1.50A  3.00us   Diodes Inc. Bridge -- for one element
.MODEL DI_KBP01G D  ( IS=39.2u RS=28.1m BV=100 IBV=5.00u
+ CJO=26.5p M=0.333 N=4.38 TT=4.32u  Vpk=100V Iave=1.50A Tt=3.00us mfg=DiodesInc type=silicon )

*SRC=KBP02G;DI_KBP02G;Diodes;Si;  200V  1.50A  3.00us   Diodes Inc. Bridge -- for one element
.MODEL DI_KBP02G D  ( IS=39.2u RS=28.1m BV=200 IBV=5.00u
+ CJO=26.5p M=0.333 N=4.38 TT=4.32u  Vpk=200V Iave=1.50A Tt=3.00us mfg=DiodesInc type=silicon )

*SRC=KBP04G;DI_KBP04G;Diodes;Si;  400V  1.50A  3.00us   Diodes Inc. Bridge -- for one element
.MODEL DI_KBP04G D  ( IS=39.2u RS=28.1m BV=400 IBV=5.00u
+ CJO=26.5p M=0.333 N=4.38 TT=4.32u  Vpk=400V Iave=1.50A Tt=3.00us mfg=DiodesInc type=silicon )

*SRC=KBP06G;DI_KBP06G;Diodes;Si;  600V  1.50A  3.00us   Diodes Inc. Bridge -- for one element
.MODEL DI_KBP06G D  ( IS=39.2u RS=28.1m BV=600 IBV=5.00u
+ CJO=26.5p M=0.333 N=4.38 TT=4.32u  Vpk=600V Iave=1.50A Tt=3.00us mfg=DiodesInc type=silicon )

*SRC=KBP08G;DI_KBP08G;Diodes;Si;  800V  1.50A  3.00us   Diodes Inc. Bridge -- for one element
.MODEL DI_KBP08G D  ( IS=39.2u RS=28.1m BV=800 IBV=5.00u
+ CJO=26.5p M=0.333 N=4.38 TT=4.32u  Vpk=800V Iave=1.50A Tt=3.00us mfg=DiodesInc type=silicon )

*SRC=KBP10G;DI_KBP10G;Diodes;Si;  1.00kV  1.50A  3.00us   Diodes Inc. Bridge -- for one element
.MODEL DI_KBP10G D  ( IS=39.2u RS=28.1m BV=1.00k IBV=5.00u
+ CJO=26.5p M=0.333 N=4.38 TT=4.32u  Vpk=1.00kV Iave=1.50A Tt=3.00us mfg=DiodesInc type=silicon )

*SRC=KBP2005G;DI_KBP2005G;Diodes;Si;  50.0V  2.00A  3.00us   Diodes Inc. Bridge -- for one element
.MODEL DI_KBP2005G D  ( IS=143n RS=21.1m BV=50.0 IBV=5.00u
+ CJO=46.2p M=0.333 N=2.12 TT=4.32u  Vpk=50.0V Iave=2.00A Tt=3.00us mfg=DiodesInc type=silicon )

*SRC=KBP201G;DI_KBP201G;Diodes;Si;  100V  2.00A  3.00us   Diodes Inc. Bridge -- for one element
.MODEL DI_KBP201G D  ( IS=143n RS=21.1m BV=100 IBV=5.00u
+ CJO=46.2p M=0.333 N=2.12 TT=4.32u  Vpk=100V Iave=2.00A Tt=3.00us mfg=DiodesInc type=silicon )

*SRC=KBP202G;DI_KBP202G;Diodes;Si;  200V  2.00A  3.00us   Diodes Inc. Bridge -- for one element
.MODEL DI_KBP202G D  ( IS=143n RS=21.1m BV=200 IBV=5.00u
+ CJO=46.2p M=0.333 N=2.12 TT=4.32u  Vpk=200V Iave=2.00A Tt=3.00us mfg=DiodesInc type=silicon )

*SRC=KBP204G;DI_KBP204G;Diodes;Si;  400V  2.00A  3.00us   Diodes Inc. Bridge -- for one element
.MODEL DI_KBP204G D  ( IS=143n RS=21.1m BV=400 IBV=5.00u
+ CJO=46.2p M=0.333 N=2.12 TT=4.32u  Vpk=400V Iave=2.00A Tt=3.00us mfg=DiodesInc type=silicon )

*SRC=KBP206G;DI_KBP206G;Diodes;Si;  600V  2.00A  3.00us   Diodes Inc. Bridge -- for one element
.MODEL DI_KBP206G D  ( IS=143n RS=21.1m BV=600 IBV=5.00u
+ CJO=46.2p M=0.333 N=2.12 TT=4.32u  Vpk=600V Iave=2.00A Tt=3.00us mfg=DiodesInc type=silicon )

*SRC=KBP208G;DI_KBP208G;Diodes;Si;  800V  2.00A  3.00us   Diodes Inc. Bridge -- for one element
.MODEL DI_KBP208G D  ( IS=143n RS=21.1m BV=800 IBV=5.00u
+ CJO=46.2p M=0.333 N=2.12 TT=4.32u  Vpk=800V Iave=2.00A Tt=3.00us mfg=DiodesInc type=silicon )

*SRC=KBP210G;DI_KBP210G;Diodes;Si;  1.00kV  2.00A  3.00us   Diodes Inc. Bridge -- for one element
.MODEL DI_KBP210G D  ( IS=143n RS=21.1m BV=1.00k IBV=5.00u
+ CJO=46.2p M=0.333 N=2.12 TT=4.32u  Vpk=1.00kV Iave=2.00A Tt=3.00us mfg=DiodesInc type=silicon )

*SRC=PBPC301;DI_PBPC301;Diodes;Si;  50.0V  3.00A  3.00us   Diodes Inc. Bridge Rectifier, per element
.MODEL DI_PBPC301 D  ( IS=492n RS=14.1m BV=50.0 IBV=10.0u
+ CJO=102p M=0.333 N=2.45 TT=4.32u )  Vpk=50.0V Iave=3.00A Tt=3.00us mfg=DiodesInc type=silicon )

*SRC=PBPC302;DI_PBPC302;Diodes;Si;  100V  3.00A  3.00us   Diodes Inc. Bridge Rectifier, per element
.MODEL DI_PBPC302 D  ( IS=492n RS=14.1m BV=100 IBV=10.0u
+ CJO=102p M=0.333 N=2.45 TT=4.32u )  Vpk=100V Iave=3.00A Tt=3.00us mfg=DiodesInc type=silicon )

*SRC=PBPC303;DI_PBPC303;Diodes;Si;  200V  3.00A  3.00us   Diodes Inc. Bridge Rectifier, per element
.MODEL DI_PBPC303 D  ( IS=492n RS=14.1m BV=200 IBV=10.0u
+ CJO=102p M=0.333 N=2.45 TT=4.32u )  Vpk=200V Iave=3.00A Tt=3.00us mfg=DiodesInc type=silicon )

*SRC=PBPC304;DI_PBPC304;Diodes;Si;  400V  3.00A  3.00us   Diodes Inc. Bridge Rectifier, per element
.MODEL DI_PBPC304 D  ( IS=492n RS=14.1m BV=400 IBV=10.0u
+ CJO=102p M=0.333 N=2.45 TT=4.32u )  Vpk=400V Iave=3.00A Tt=3.00us mfg=DiodesInc type=silicon )

*SRC=PBPC305;DI_PBPC305;Diodes;Si;  600V  3.00A  3.00us   Diodes Inc. Bridge Rectifier, per element
.MODEL DI_PBPC305 D  ( IS=492n RS=14.1m BV=600 IBV=10.0u
+ CJO=102p M=0.333 N=2.45 TT=4.32u )  Vpk=600V Iave=3.00A Tt=3.00us mfg=DiodesInc type=silicon )

*SRC=PBPC306;DI_PBPC306;Diodes;Si;  800V  3.00A  3.00us   Diodes Inc. Bridge Rectifier, per element
.MODEL DI_PBPC306 D  ( IS=492n RS=14.1m BV=800 IBV=10.0u
+ CJO=102p M=0.333 N=2.45 TT=4.32u )  Vpk=800V Iave=3.00A Tt=3.00us mfg=DiodesInc type=silicon )

*SRC=PBPC307;DI_PBPC307;Diodes;Si;  1.00kV  3.00A  3.00us   Diodes Inc. Bridge Rectifier, per element
.MODEL DI_PBPC307 D  ( IS=492n RS=14.1m BV=1.00k IBV=10.0u
+ CJO=102p M=0.333 N=2.45 TT=4.32u )  Vpk=1.00kV Iave=3.00A Tt=3.00us mfg=DiodesInc type=silicon )

*SRC=PBPC601;DI_PBPC601;Diodes;Si;  50.0V  6.00A  3.00us   Diodes Inc. Bridge -- for one element
.MODEL DI_PBPC601 D  ( IS=2.37n RS=5.14m BV=50.0 IBV=10.0u
+ CJO=102p M=0.333 N=1.63 TT=4.32u  Vpk=50.0V Iave=6.00A Tt=3.00us mfg=DiodesInc type=silicon )

*SRC=PBPC602;DI_PBPC602;Diodes;Si;  100V  6.00A  3.00us   Diodes Inc. Bridge -- for one element
.MODEL DI_PBPC601 D  ( IS=2.37n RS=5.14m BV=100 IBV=10.0u
+ CJO=102p M=0.333 N=1.63 TT=4.32u  Vpk=100V Iave=6.00A Tt=3.00us mfg=DiodesInc type=silicon )

*SRC=PBPC603;DI_PBPC603;Diodes;Si;  200V  6.00A  3.00us   Diodes Inc. Bridge -- for one element
.MODEL DI_PBPC603 D  ( IS=2.37n RS=5.14m BV=200 IBV=10.0u
+ CJO=102p M=0.333 N=1.63 TT=4.32u  Vpk=200V Iave=6.00A Tt=3.00us mfg=DiodesInc type=silicon )

*SRC=PBPC604;DI_PBPC604;Diodes;Si;  400V  6.00A  3.00us   Diodes Inc. Bridge -- for one element
.MODEL DI_PBPC604 D  ( IS=2.37n RS=5.14m BV=400 IBV=10.0u
+ CJO=102p M=0.333 N=1.63 TT=4.32u  Vpk=400V Iave=6.00A Tt=3.00us mfg=DiodesInc type=silicon )

*SRC=PBPC605;DI_PBPC605;Diodes;Si;  600V  6.00A  3.00us   Diodes Inc. Bridge -- for one element
.MODEL DI_PBPC605 D  ( IS=2.37n RS=5.14m BV=600 IBV=10.0u
+ CJO=102p M=0.333 N=1.63 TT=4.32u  Vpk=600V Iave=6.00A Tt=3.00us mfg=DiodesInc type=silicon )

*SRC=PBPC606;DI_PBPC606;Diodes;Si;  800V  6.00A  3.00us   Diodes Inc. Bridge -- for one element
.MODEL DI_PBPC606 D  ( IS=2.37n RS=5.14m BV=800 IBV=10.0u
+ CJO=102p M=0.333 N=1.63 TT=4.32u  Vpk=800V Iave=6.00A Tt=3.00us mfg=DiodesInc type=silicon )

*SRC=PBPC607;DI_PBPC607;Diodes;Si;  1.00kV  6.00A  3.00us   Diodes Inc. Bridge -- for one element
.MODEL DI_PBPC607 D  ( IS=2.37n RS=5.14m BV=1.00k IBV=10.0u
+ CJO=102p M=0.333 N=1.63 TT=4.32u  Vpk=1.00kV Iave=6.00A Tt=3.00us mfg=DiodesInc type=silicon )

*SRC=RH02;DI_RH02;Diodes;Si;  200V  0.500A  150ns   Diodes Inc. Fast Recovery Bridge Rectifier, per node
.MODEL DI_RH02 D  ( IS=2.25n RS=0.100 BV=200 IBV=5.00u
+ CJO=24.0p M=0.333 N=1.70 TT=216n  Vpk=200V Iave=0.500A Tt=150ns mfg=DiodesInc type=silicon )

*SRC=RH04;DI_RH04;Diodes;Si;  400V  0.500A  150ns   Diodes Inc. Fast Recovery Bridge Rectifier, per node
.MODEL DI_RH04 D  ( IS=2.25n RS=0.100 BV=400 IBV=5.00u
+ CJO=24.0p M=0.333 N=1.70 TT=216n  Vpk=400V Iave=0.500A Tt=150ns mfg=DiodesInc type=silicon )

*SRC=RH06;DI_RH06;Diodes;Si;  600V  0.500A  250ns   Diodes Inc. Fast Recovery Bridge Rectifier, per node
.MODEL DI_RH06 D  ( IS=2.25n RS=0.100 BV=600 IBV=5.00u
+ CJO=24.0p M=0.333 N=1.70 TT=360n  Vpk=600V Iave=0.500A Tt=250ns mfg=DiodesInc type=silicon )

*SRC=W005G;DI_W005G;Diodes;Si;  50.0V  1.50A  3.00us   Diodes Inc. Bridge -- for one element
.MODEL DI_W005G D  ( IS=8.63u RS=28.0m BV=50.0 IBV=5.00u
+ CJO=22.5p M=0.333 N=3.21 TT=4.32u  Vpk=50.0V Iave=1.50A Tt=3.00us mfg=DiodesInc type=silicon )

*SRC=W01G;DI_W01G;Diodes;Si;  100V  1.50A  3.00us   Diodes Inc. Bridge -- for one element
.MODEL DI_W01G D  ( IS=8.63u RS=28.0m BV=100 IBV=5.00u
+ CJO=22.5p M=0.333 N=3.21 TT=4.32u  Vpk=100V Iave=1.50A Tt=3.00us mfg=DiodesInc type=silicon )

*SRC=W02G;DI_W02G;Diodes;Si;  200V  1.50A  3.00us   Diodes Inc. Bridge -- for one element
.MODEL DI_W02G D  ( IS=8.63u RS=28.0m BV=200 IBV=5.00u
+ CJO=22.5p M=0.333 N=3.21 TT=4.32u  Vpk=200V Iave=1.50A Tt=3.00us mfg=DiodesInc type=silicon )

*SRC=W04G;DI_W04G;Diodes;Si;  400V  1.50A  3.00us   Diodes Inc. Bridge -- for one element
.MODEL DI_W04G D  ( IS=8.63u RS=28.0m BV=400 IBV=5.00u
+ CJO=22.5p M=0.333 N=3.21 TT=4.32u  Vpk=400V Iave=1.50A Tt=3.00us mfg=DiodesInc type=silicon )

*SRC=W06G;DI_W06G;Diodes;Si;  600V  1.50A  3.00us   Diodes Inc. Bridge -- for one element
.MODEL DI_W06G D  ( IS=8.63u RS=28.0m BV=600 IBV=5.00u
+ CJO=22.5p M=0.333 N=3.21 TT=4.32u  Vpk=600V Iave=1.50A Tt=3.00us mfg=DiodesInc type=silicon )

*SRC=W08G;DI_W08G;Diodes;Si;  800V  1.50A  3.00us   Diodes Inc. Bridge -- for one element
.MODEL DI_W08G D  ( IS=8.63u RS=28.0m BV=800 IBV=5.00u
+ CJO=22.5p M=0.333 N=3.21 TT=4.32u  Vpk=800V Iave=1.50A Tt=3.00us mfg=DiodesInc type=silicon )

*SRC=W10G;DI_W10G;Diodes;Si;  1.00kV  1.50A  3.00us   Diodes Inc. Bridge -- for one element
.MODEL DI_W10G D  ( IS=8.63u RS=28.0m BV=1.00k IBV=5.00u
+ CJO=22.5p M=0.333 N=3.21 TT=4.32u  Vpk=1.00kV Iave=1.50A Tt=3.00us mfg=DiodesInc type=silicon )

*SRC=1N4933;DI_1N4933;Diodes;Si;  50.0V  1.00A  200ns   Diodes Inc. Fast Rectifier
.MODEL DI_1N4933 D  ( IS=830n RS=34.0m BV=50.0 IBV=5.00u
+ CJO=26.5p M=0.333 N=2.46 TT=288n  Vpk=50.0V Iave=1.00A Tt=200ns mfg=DiodesInc type=silicon )

*SRC=1N4934;DI_1N4934;Diodes;Si;  100V  1.00A  200ns   Diodes Inc. Fast Rectifier
.MODEL DI_1N4934 D  ( IS=830n RS=34.0m BV=100 IBV=5.00u
+ CJO=26.5p M=0.333 N=2.46 TT=288n  Vpk=100V Iave=1.00A Tt=200ns mfg=DiodesInc type=silicon )

*SRC=1N4935;DI_1N4935;Diodes;Si;  200V  1.00A  200ns   Diodes Inc. Fast Rectifier
.MODEL DI_1N4935 D  ( IS=830n RS=34.0m BV=200 IBV=5.00u
+ CJO=26.5p M=0.333 N=2.46 TT=288n  Vpk=200V Iave=1.00A Tt=200ns mfg=DiodesInc type=silicon )

*SRC=1N4936;DI_1N4936;Diodes;Si;  400V  1.00A  200ns   Diodes Inc. Fast Rectifier
.MODEL DI_1N4936 D  ( IS=830n RS=34.0m BV=400 IBV=5.00u
+ CJO=26.5p M=0.333 N=2.46 TT=288n  Vpk=400V Iave=1.00A Tt=200ns mfg=DiodesInc type=silicon )

*SRC=1N4937;DI_1N4937;Diodes;Si;  600V  1.00A  200ns   Diodes Inc. Fast Rectifier
.MODEL DI_1N4937 D  ( IS=830n RS=34.0m BV=600 IBV=5.00u
+ CJO=26.5p M=0.333 N=2.46 TT=288n  Vpk=600V Iave=1.00A Tt=200ns mfg=DiodesInc type=silicon )

*SRC=ES1A;DI_ES1A;Diodes;Si;  50.0V  1.00A  20.0ns   Diodes Inc. 
.MODEL DI_ES1A D  ( IS=123n RS=42.0m BV=50.0 IBV=5.00u
+ CJO=18.5p M=0.333 N=2.12 TT=28.8n  Vpk=50.0V Iave=1.00A Tt=20.0ns mfg=DiodesInc type=silicon )

*SRC=ES1B;DI_ES1B;Diodes;Si;  100V  1.00A  20.0ns   Diodes Inc. 
.MODEL DI_ES1B D  ( IS=123n RS=42.0m BV=100 IBV=5.00u
+ CJO=18.5p M=0.333 N=2.12 TT=28.8n  Vpk=100V Iave=1.00A Tt=20.0ns mfg=DiodesInc type=silicon )

*SRC=ES1C;DI_ES1C;Diodes;Si;  150V  1.00A  20.0ns   Diodes Inc. 
.MODEL DI_ES1C D  ( IS=123n RS=42.0m BV=150 IBV=5.00u
+ CJO=18.5p M=0.333 N=2.12 TT=28.8n  Vpk=150V Iave=1.00A Tt=20.0ns mfg=DiodesInc type=silicon )

*SRC=ES1D;DI_ES1D;Diodes;Si;  200V  1.00A  20.0ns   Diodes Inc. 
.MODEL DI_ES1D D  ( IS=123n RS=42.0m BV=200 IBV=5.00u