*==============================================
*Copyright (c) 1997 MicroCode Engineering, Inc.
*All Rights Reserved
*==============================================

*==============================================
*NPN Trans Pinout: C,B,E
*==============================================

*NPN
*Default NPN BJT pkg:TO-92B 1,2,3
.MODEL NPN~ NPN()

*QNPN
*pkg:TO-92B 1,2,3
.MODEL QNPN NPN(IS=3.2E-16 BF=141 VAF=35 ISE=2.6 NE=1.46 CJE=1E-13 
+ MJE=0.333 TF=6E-11 CJC=1E-13 CJS=2.2E-13 MJS=0.5 FC=0.67 )

*2N2219A MCE 5/13/95
*Si 800mW  40V 800mA 350MHz pkg:TO-5 3,2,1
.MODEL 2N2219A NPN(IKR=0.285 RB=1.53 RE=0.383 RC=0.153 CJE=2.41E-11 
+ VJE=1.1 MJE=0.5 TF=4.54E-10 CJC=2.02E-11 VJC=0.3 MJC=0.3 TR=3.15E-7 
+ XTB=1.5 )

*2N2222A
*Si 500mW 40V 800mA 300MHz pkg:TO-18 3,2,1
.MODEL 2N2222A NPN(IS=8.11E-14 BF=205 VAF=113 IKF=0.5 ISE=1.06E-11 
+ NE=2 BR=4 VAR=24 IKR=0.225 RB=1.37 RE=0.343 RC=0.137 CJE=2.95E-11 
+ TF=3.97E-10 CJC=1.52E-11 TR=8.5E-8 XTB=1.5 )

*2N2369A MCE 5/15/95
*Si 360mW 15V 500mA 600MHz pkg:TO-18 3,2,1
.MODEL 2N2369A NPN (IS=11.2F NF=1 BF=130 VAF=69.7 IKF=57M ISE=8.01P NE=2
+ BR=4 NR=1 VAR=18 IKR=85.5M RE=2.06 RB=8.26 RC=.826 XTB=1.5
+ CJE=3.17P VJE=1.1 MJE=.5 CJC=5.91P VJC=.3 MJC=.3 TF=265P TR=10.2N)

*2N2484 MCE 5/13/95
*Si 360mW  60V  50mA 100MHz pkg:TO-18 3,2,1
.MODEL 2N2484 NPN (IS=5.07F NF=1 BF=455 VAF=139 IKF=30M ISE=1.11P NE=2
+ BR=4 NR=1 VAR=24 IKR=45M RE=1.03 RB=4.12 RC=.412 XTB=1.5
+ CJE=4.82P VJE=1.1 MJE=.5 CJC=7.1P VJC=.3 MJC=.3 TF=1.59N TR=1.1U)

*2N3019 MCE 5/13/95
*Si 800mW  80V    1A 190MHz pkg:TO-5 3,2,1
.MODEL 2N3019 NPN (IS=2.02F NF=1 BF=260 VAF=161 IKF=.75 ISE=6.16P NE=2
+ BR=4 NR=1 VAR=28 IKR=1.12 RE=.331 RB=1.32 RC=.132 XTB=1.5
+ CJE=76P VJE=1.1 MJE=.5 CJC=18.7P VJC=.3 MJC=.3 TF=837P TR=581N)

*2N3053 MCE 1/26/96
*Si 5W     40V 700mA 185MHz pkg:TO-5 3,2,1
.MODEL 2N3053 NPN (IS=71.1F NF=1 BF=260 VAF=113 IKF=.42 ISE=27.3P NE=2
+ BR=4 NR=1 VAR=20 IKR=.63 RE=73.6M RB=.294 RC=29.4M XTB=1.5
+ CJE=79.2P VJE=1.1 MJE=.5 CJC=25.5P VJC=.3 MJC=.3 TF=858P TR=596N)

*2N3055
*Si  115W  70V   15A  20kHz pkg:TO-3 3,2,1
.MODEL 2N3055 NPN(IS=4.66E-12 BF=360 VAF=100 IKF=0.25 ISE=3.339E-11 
+ BR=2 ISC=5E-9 RB=3 IRB=0.001 RBM=0.4 RC=0.04 CJE=5.802E-10 VJE=1.2 
+ MJE=0.45 TF=8E-8 XTF=1 ITF=3 PTF=120 CJC=2.121E-10 MJC=0.4 TR=2.55E-6 
+ XTB=1 )

*2N3501 MCE 5/13/95
*Si    1W 150V 300mA 283MHz pkg:TO-5 3,2,1
.MODEL 2N3501 NPN (IS=30.4F NF=1 BF=136 VAF=220 IKF=.12 ISE=18.2P NE=2
+ BR=4 NR=1 VAR=24 IKR=.18 RE=.171 RB=.687 RC=68.7M XTB=1.5
+ CJE=63.5P VJE=1.1 MJE=.5 CJC=14.6P VJC=.3 MJC=.3 TF=562P TR=390N)

*2N3507
*Si    1W  50V    3A  60MHz pkg:TO-5 3,2,1
.MODEL 2N3507 NPN(IS=1.5E-8 BF=75 NF=1.67 VAF=100 IKF=1.2 BR=4 RC=0.2 
+ CJE=5E-10 TF=1.8E-9 CJC=7E-11 TR=2.5E-8 XTB=1.5 )

*2N3700 MCE 5/13/95
*Si 500mW  80V    1A 190MHz pkg:TO-18 3,2,1
.MODEL 2N3700 NPN (IS=2.02F NF=1 BF=260 VAF=161 IKF=.75 ISE=6.16P NE=2
+ BR=4 NR=1 VAR=28 IKR=1.12 RE=.331 RB=1.32 RC=.132 XTB=1.5
+ CJE=76P VJE=1.1 MJE=.5 CJC=18.7P VJC=.3 MJC=.3 TF=837P TR=581N)

*2N3904
*Si 310mW  40V 200mA 300MHz pkg:TO-92B 1,2,3
.MODEL 2N3904 NPN(IS=1.4E-14 BF=300 VAF=100 IKF=0.025 ISE=3E-13 
+ BR=7.5 RC=2.4 CJE=4.5E-12 TF=4E-10 CJC=3.5E-12 TR=2.1E-8 XTB=1.5 KF=9E-16 )

*2N3947 MCE 5/13/95
*Si 360mW  40V 200mA 346MHz pkg:TO-18 3,2,1
.MODEL 2N3947 NPN (IS=.258F NF=1 BF=286 VAF=113 IKF=32M ISE=413F NE=2
+ BR=4 NR=1 VAR=24 IKR=48M RE=1.03 RB=4.12 RC=.412 XTB=1.5
+ CJE=7.18P VJE=1.1 MJE=.5 CJC=6.15P VJC=.3 MJC=.3 TF=458P TR=425N)

*2N4401
*Si 310mW  40V 600mA 250MHz pkg:TO-92B 1,2,3
.MODEL 2N4401 NPN(IS=9.09E-15 BF=300 VAF=113 IKF=0.36 ISE=1.06E-11 
+ NE=2 BR=4 VAR=24 IKR=0.54 RB=1.27 RE=0.319 RC=0.127 CJE=2.34E-11 TF=5.12E-10 
+ CJC=1.02E-11 TR=1.51E-7 XTB=1.5 )

*2N5551 MCE 5/11/95
*Si 625mW 160V 600mA 300MHz pkg:TO-92B 1,2,3
.MODEL 2N5551 NPN (IS=2.67E-20 NF=1 BF=195 VAF=227 IKF=15M ISE=4.22F NE=2
+ BR=4 NR=1 VAR=24 IKR=22.5M RE=1.63 RB=6.52 RC=.652 XTB=1.5
+ CJE=17.9P VJE=1.1 MJE=.5 CJC=7.76P VJC=.3 MJC=.3 TF=530P TR=595N)

*2N6431 MCE 5/13/95
*Si 500mW 300V  50mA 300MHz pkg:TO-18 3,2,1
.MODEL 2N6431 NPN (IS=5.07F NF=1 BF=130 VAF=311 IKF=30M ISE=3.9P NE=2
+ BR=4 NR=1 VAR=24 IKR=45M RE=1.03 RB=4.12 RC=.412 XTB=1.5
+ CJE=12.4P VJE=1.1 MJE=.5 CJC=4.02P VJC=.3 MJC=.3 TF=530P TR=368N)

*2N6517 MCE 5/11/95
*Si 625mW 350V 500mA 200MHz pkg:TO-92B 1,2,3
.MODEL 2N6517 NPN (IS=67.3F NF=1 BF=320 VAF=336 IKF=90M ISE=97.3P NE=2
+ BR=4 NR=1 VAR=24 IKR=.135 RE=9.63 RB=38.5 RC=3.85 XTB=1.5
+ CJE=58P VJE=1.1 MJE=.5 CJC=13.3P VJC=.3 MJC=.3 TF=795P TR=5.1U)

*MJE15030 MCE 2/24/97
*Si   50W 150V    8A  70MHz pkg:TO-220 2,1,3
.SUBCKT MJE15030 1 2 3
Q1 1 2 3  QPWR .67
Q2 1 4 3  QPWR .33
RBS  2 4  12.5
.MODEL QPWR NPN (IS=17.7P NF=1 BF=195 VAF=220 IKF=3 ISE=1.54N NE=2
+ BR=4 NR=1 VAR=20 IKR=4.5 RE=85.2M RB=0.341 RC=34.1M XTB=1.5
+ CJE=2.68N VJE=0.6 MJE=0.3 CJC=171P VJC=0.22 MJC=0.2 TF=2.27N TR=5.1U)
.ENDS MJE15030

*PN100 MCE 4/8/97
*Si 625mW 75V 500mA 250MHz GenPurpose pkg:TO-92B 1,2,3
.MODEL PN100 NPN (IS=50.8F NF=1 BF=292 VAF=156 IKF=0.3 ISE=22.4P NE=2
+ BR=4 NR=1 VAR=24 IKR=0.45 RE=0.103 RB=0.412 RC=41.2M XTB=1.5
+ CJE=15.2P VJE=1.1 MJE=0.5 CJC=7.1P VJC=0.3 MJC=0.3 TF=636P TR=357N)

*PN100A MCE 4/8/97
*Si 625mW 75V 500mA 250MHz GenPurpose pkg:TO-92B 1,2,3
.MODEL PN100A NPN (IS=50.8F NF=1 BF=585 VAF=156 IKF=0.3 ISE=11.2P NE=2
+ BR=4 NR=1 VAR=24 IKR=0.45 RE=0.103 RB=0.412 RC=41.2M XTB=1.5
+ CJE=15.2P VJE=1.1 MJE=0.5 CJC=7.1P VJC=0.3 MJC=0.3 TF=636P TR=357N)

*PN918 MCE 4/8/97
*Si 350mW 15V 50mA 690MHz RF pkg:TO-92B 1,2,3
.MODEL PN918 NPN (IS=5.08F NF=1 BF=87.1 VAF=69.7 IKF=55M ISE=7.52P NE=2
+ BR=4 NR=1 VAR=12 IKR=82.5M RE=1.03 RB=4.12 RC=0.412 XTB=1.5
+ CJE=12.5P VJE=1.1 MJE=0.5 CJC=4.02P VJC=0.3 MJC=0.3 TF=229P TR=159N)

*TN3019A MCE 4/8/97
*Si 1W 80V 1A 155MHz GenPurpose pkg:TO-92B 1,2,3
.MODEL TN3019A NPN (IS=102F NF=1 BF=228 VAF=161 IKF=0.6 ISE=57.5P NE=2
+ BR=4 NR=1 VAR=28 IKR=0.9 RE=51.5M RB=0.206 RC=20.6M XTB=1.5
+ CJE=60.8P VJE=1.1 MJE=0.5 CJC=28.4P VJC=0.3 MJC=0.3 TF=1.03N TR=713N)

*TN3440A MCE 4/8/97
*Si 1W 250V 100mA 60MHz GenPurpose pkg:TO-92B 1,2,3
.MODEL TN3440A NPN (IS=10.2F NF=1 BF=130 VAF=285 IKF=0.3 ISE=10.1P NE=2
+ BR=4 NR=1 VAR=28 IKR=0.45 RE=0.515 RB=2.06 RC=0.206 XTB=1.5
+ CJE=138P VJE=1.1 MJE=0.5 CJC=26P VJC=0.3 MJC=0.3 TF=2.65N TR=1.84U)

*PN3563 MCE 4/8/97
*Si 350mW 15V 50mA 690MHz RF pkg:TO-92B 1,2,3
.MODEL PN3563 NPN (IS=5.08F NF=1 BF=195 VAF=69.7 IKF=30M ISE=3.36P NE=2
+ BR=4 NR=1 VAR=8 IKR=45M RE=1.03 RB=4.12 RC=0.412 XTB=1.5
+ CJE=12.5P VJE=1.1 MJE=0.5 CJC=4.02P VJC=0.3 MJC=0.3 TF=229P TR=159N)

*TN3725A MCE 4/8/97
*Si 1W 40V 1.2A 300MHz Switching pkg:TO-92B 1,2,3
.MODEL TN3725A NPN (IS=122F NF=1 BF=130 VAF=114 IKF=0.4 ISE=121P NE=2
+ BR=4 NR=1 VAR=24 IKR=0.6 RE=42.9M RB=0.172 RC=17.2M XTB=1.5
+ CJE=48.4P VJE=1.1 MJE=0.5 CJC=12.1P VJC=0.3 MJC=0.3 TF=530P TR=368N)

*2N4124 MCE 4/8/97
*Si 625mW 25V 200mA 300MHz GenPurpose pkg:TO-92B 1,2,3
.MODEL 2N4124 NPN (IS=20.3F NF=1 BF=312 VAF=90 IKF=0.12 ISE=8.4P NE=2
+ BR=4 NR=1 VAR=20 IKR=0.18 RE=0.258 RB=1.03 RC=0.103 XTB=1.5
+ CJE=27.9P VJE=1.1 MJE=0.5 CJC=8.99P VJC=0.3 MJC=0.3 TF=530P TR=368N)

*2N5088 MCE 4/8/97
*Si 625mW 30V 100mA 50MHz GenPurpose pkg:TO-92B 1,2,3
.MODEL 2N5088 NPN (IS=10.2F NF=1 BF=780 VAF=98.6 IKF=60M ISE=1.68P NE=2
+ BR=4 NR=1 VAR=18 IKR=90M RE=0.515 RB=2.06 RC=0.206 XTB=1.5
+ CJE=17.6P VJE=1.1 MJE=0.5 CJC=5.68P VJC=0.3 MJC=0.3 TF=3.18N TR=2.21U)

*2N5089 MCE 4/8/97
*Si 625mW 25V 100mA 50MHz GenPurpose pkg:TO-92B 1,2,3
.MODEL 2N5089 NPN (IS=10.2F NF=1 BF=1.04K VAF=90 IKF=60M ISE=1.26P NE=2
+ BR=4 NR=1 VAR=18 IKR=90M RE=0.515 RB=2.06 RC=0.206 XTB=1.5
+ CJE=17.6P VJE=1.1 MJE=0.5 CJC=5.68P VJC=0.3 MJC=0.3 TF=3.18N TR=2.21U)

*2N5210 MCE 4/8/97
*Si 625mW 50V 100mA 30MHz GenPurpose pkg:TO-92B 1,2,3
.MODEL 2N5210 NPN (IS=10.2F NF=1 BF=455 VAF=127 IKF=60M ISE=2.88P NE=2
+ BR=4 NR=1 VAR=18 IKR=90M RE=0.515 RB=2.06 RC=0.206 XTB=1.5
+ CJE=17.6P VJE=1.1 MJE=0.5 CJC=5.68P VJC=0.3 MJC=0.3 TF=5.3N TR=3.68U)

*TN6714A MCE 4/8/97
*Si 1W 30V 2A 110MHz GenPurpose pkg:TO-92B 1,2,3
.MODEL TN6714A NPN (IS=203F NF=1 BF=195 VAF=98.6 IKF=1.2 ISE=134P NE=2
+ BR=4 NR=1 VAR=20 IKR=1.8 RE=25.8M RB=0.103 RC=10.3M XTB=1.5
+ CJE=213P VJE=1.1 MJE=0.5 CJC=68.6P VJC=0.3 MJC=0.3 TF=1.45N TR=1.01U)

*TN6715A MCE 4/8/97
*Si 1W 40V 1.5A 127MHz GenPurpose pkg:TO-92B 1,2,3
.MODEL TN6715A NPN (IS=152F NF=1 BF=195 VAF=114 IKF=0.9 ISE=101P NE=2
+ BR=4 NR=1 VAR=20 IKR=1.35 RE=34.3M RB=0.137 RC=13.7M XTB=1.5
+ CJE=161P VJE=1.1 MJE=0.5 CJC=52.1P VJC=0.3 MJC=0.3 TF=1.26N TR=873N)

*TN6717A MCE 4/8/97
*Si 1W 80V 1.2A 141MHz GenPurpose pkg:TO-92B 1,2,3
.MODEL TN6717A NPN (IS=122F NF=1 BF=195 VAF=161 IKF=0.72 ISE=80.6P NE=2
+ BR=4 NR=1 VAR=20 IKR=1.08 RE=42.9M RB=0.172 RC=17.2M XTB=1.5
+ CJE=131P VJE=1.1 MJE=0.5 CJC=42.1P VJC=0.3 MJC=0.3 TF=1.12N TR=781N)

*MPS8050 MCE 4/8/97
*Si 625mW 25V 1A 155MHz GenPurpose pkg:TO-92B 1,2,3
.MODEL MPS8050 NPN (IS=102F NF=1 BF=195 VAF=90 IKF=0.6 ISE=67.2P NE=2
+ BR=4 NR=1 VAR=24 IKR=0.9 RE=51.5M RB=0.206 RC=20.6M XTB=1.5
+ CJE=44.2P VJE=1.1 MJE=0.5 CJC=18.9P VJC=0.3 MJC=0.3 TF=1.03N TR=713N)

*MPSA42 MCE 4/8/97
*Si 625mW 300V 200mA 50MHz HiVoltageAmp pkg:TO-92B 1,2,3
.MODEL MPSA42 NPN (IS=20.3F NF=1 BF=117 VAF=312 IKF=45M ISE=22.4P NE=2
+ BR=4 NR=1 VAR=24 IKR=67.5M RE=0.258 RB=1.03 RC=0.103 XTB=1.5
+ CJE=24.9P VJE=1.1 MJE=0.5 CJC=8.67P VJC=0.3 MJC=0.3 TF=3.18N TR=2.21U)

*MPSA43 MCE 4/8/97
*Si 625mW 200V 200mA 50MHz HiVoltageAmp pkg:TO-92B 1,2,3
.MODEL MPSA43 NPN (IS=20.3F NF=1 BF=117 VAF=255 IKF=45M ISE=22.4P NE=2
+ BR=4 NR=1 VAR=24 IKR=67.5M RE=0.258 RB=1.03 RC=0.103 XTB=1.5
+ CJE=24.9P VJE=1.1 MJE=0.5 CJC=8.67P VJC=0.3 MJC=0.3 TF=3.18N TR=2.21U)

*MPSH10 MCE 4/8/97
*Si 350mW 25V 50mA 650MHz RF pkg:TO-92B 1,2,3
.MODEL MPSH10 NPN (IS=5.08F NF=1 BF=78 VAF=90 IKF=40M ISE=8.4P NE=2
+ BR=4 NR=1 VAR=12 IKR=60M RE=1.03 RB=4.12 RC=0.412 XTB=1.5
+ CJE=12.5P VJE=1.1 MJE=0.5 CJC=4.02P VJC=0.3 MJC=0.3 TF=245P TR=170N)

*MPSH11 MCE 4/8/97
*Si 350mW 25V 50mA 650MHz RF pkg:TO-92B 1,2,3
.MODEL MPSH11 NPN (IS=5.08F NF=1 BF=195 VAF=90 IKF=35M ISE=3.36P NE=2
+ BR=4 NR=1 VAR=12 IKR=52.5M RE=1.03 RB=4.12 RC=0.412 XTB=1.5
+ CJE=3.18P VJE=1.1 MJE=0.5 CJC=710F VJC=0.3 MJC=0.3 TF=245P TR=170N)

*MPSH24 MCE 4/8/97
*Si 625mW 30V 50mA 400MHz RF pkg:TO-92B 1,2,3
.MODEL MPSH24 NPN (IS=5.08F NF=1 BF=65 VAF=98.6 IKF=30M ISE=10.1P NE=2
+ BR=4 NR=1 VAR=16 IKR=45M RE=1.03 RB=4.12 RC=0.412 XTB=1.5
+ CJE=12.5P VJE=1.1 MJE=0.5 CJC=4.02P VJC=0.3 MJC=0.3 TF=398P TR=276N)

*D44H8 MCE 4/8/97
*Si 60W 60V 8A 50MHz PwrAmp pkg:TO-220 2,1,3
.SUBCKT D44H8    1 2 3
*    TERMINALS:  C B E
Q1 1 2 3  QPWR .67
Q2 1 4 3  QPWR .33
RBS  2 4  30.5
.MODEL QPWR NPN (IS=590F NF=1 BF=131 VAF=139 IKF=2.67 ISE=395P NE=2
+ BR=4 NR=1 VAR=20 IKR=4 RE=41.4M RB=0.166 RC=16.6M XTB=1.5
+ CJE=1.28N VJE=0.6 MJE=0.3 CJC=245P VJC=0.22 MJC=0.2 TF=3.18N TR=122N)
.ENDS 

*BF720 MCE 5/11/95
*Si 1.5W  300V 100mA  60MHz pkg:SOT-223 2,1,3
.MODEL BF720 NPN (IS=10.1F NF=1 BF=65 VAF=311 IKF=60M ISE=15.6P NE=2
+ BR=4 NR=1 VAR=20 IKR=90M RE=9.38 RB=37.5 RC=3.75 XTB=1.5
+ CJE=17.6P VJE=1.1 MJE=.5 CJC=5.68P VJC=.3 MJC=.3 TF=2.65N TR=1.84U)

*ECG87 MCE 4/2/96
*Si 200W 250V 10A HiPwr LinAmp pkg:TO-3 3,1,2
.SUBCKT ECG87    1 2 3
Q1 1 2 3  QPWR .67
Q2 1 4 3  QPWR .33
RBS  2 4  7.7
.MODEL QPWR NPN (IS=737F NF=1 BF=39 VAF=284 IKF=3.33 ISE=1.65N NE=2
+ BR=4 NR=1 VAR=20 IKR=5 RE=33.1M RB=.132 RC=13.2M XTB=1.5
+ CJE=322P VJE=.6 MJE=.3 CJC=209P VJC=.22 MJC=.2 TF=53N TR=2.04U)
.ENDS ECG87

*ECG175 MCE 4/2/96
*Si 40W 300V 3A AF PwrAmp pkg:TO-66 3,1,2
.SUBCKT ECG175   1 2 3
Q1 1 2 3  QPWR .67
Q2 1 4 3  QPWR .33
RBS  2 4  6.5
.MODEL QPWR NPN (IS=221F NF=1 BF=65 VAF=311 IKF=1 ISE=297P NE=2
+ BR=4 NR=1 VAR=24 IKR=1.5 RE=.11 RB=.442 RC=44.2M XTB=1.5
+ CJE=98.6P VJE=.6 MJE=.3 CJC=64P VJC=.22 MJC=.2 TF=15.9N TR=612N)
.ENDS ECG175

*ECG188 MCE 4/2/96
*Si 10W 80V 2A AF Driver PwrAmp pkg:TO-126
.SUBCKT ECG188   1 2 3
Q1 1 2 3  QPWR .67
Q2 1 4 3  QPWR .33
RBS  2 4  23
.MODEL QPWR NPN (IS=147F NF=1 BF=104 VAF=161 IKF=.667 ISE=123P NE=2
+ BR=4 NR=1 VAR=16 IKR=1 RE=.165 RB=.663 RC=66.3M XTB=1.5
+ CJE=66.7P VJE=.6 MJE=.3 CJC=43.3P VJC=.22 MJC=.2 TF=3.18N TR=122N)
.ENDS ECG188

*ECG191 MCE 4/2/96
*Si 10W 300V 500mA HV A/V Amp pkg:TO-126
.SUBCKT ECG191   1 2 3
Q1 1 2 3  QPWR .67
Q2 1 4 3  QPWR .33
RBS  2 4  6.5
.MODEL QPWR NPN (IS=36.8F NF=1 BF=65 VAF=311 IKF=.166 ISE=49.5P NE=2
+ BR=4 NR=1 VAR=24 IKR=.25 RE=.663 RB=2.65 RC=.265 XTB=1.5
+ CJE=18.8P VJE=.6 MJE=.3 CJC=12.2P VJC=.22 MJC=.2 TF=2.65N TR=102N)
.ENDS ECG191

*ECG228A MCE 4/2/96
*Si 10W 350V 1A HiSpeedSw LinAmp A/V pkg:TO-126
.SUBCKT ECG228A  1 2 3
*    TERMINALS:  C B E
*  350 Volt  1 Amp  SiNPN  Power Transistor  04-02-1996
Q1 1 2 3  QPWR .67
Q2 1 4 3  QPWR .33
RBS  2 4  5.64
.MODEL QPWR NPN (IS=73.7F NF=1 BF=52 VAF=336 IKF=.333 ISE=123P NE=2
+ BR=4 NR=1 VAR=28 IKR=.5 RE=.331 RB=1.32 RC=.132 XTB=1.5
+ CJE=34.8P VJE=.6 MJE=.3 CJC=22.6P VJC=.22 MJC=.2 TF=10.6N TR=408N)
.ENDS ECG228A

*ECG375 MCE 4/2/96
*Si 25W 150V 3A VertDefl AF Amp pkg:TO-220 2,1,3
.SUBCKT ECG375   1 2 3
Q1 1 2 3  QPWR .67
Q2 1 4 3  QPWR .33
RBS  2 4  12.5
.MODEL QPWR NPN (IS=221F NF=1 BF=195 VAF=220 IKF=1 ISE=99.1P NE=2
+ BR=4 NR=1 VAR=24 IKR=1.5 RE=.11 RB=.442 RC=44.2M XTB=1.5
+ CJE=98.6P VJE=.6 MJE=.3 CJC=64P VJC=.22 MJC=.2 TF=19.8N TR=765N)
.ENDS ECG375

*ECG376 MCE 4/2/96
*Si 1.5W 300V 150mA PwrAmp pkg:TO-220 2,1,3
.SUBCKT ECG376   1 2 3
Q1 1 2 3  QPWR .67
Q2 1 4 3  QPWR .33
RBS  2 4  6.5
.MODEL QPWR NPN (IS=11F NF=1 BF=130 VAF=311 IKF=50M ISE=7.43P NE=2
+ BR=4 NR=1 VAR=20 IKR=75M RE=2.21 RB=8.84 RC=.884 XTB=1.5
+ CJE=7.69P VJE=.6 MJE=.3 CJC=4.99P VJC=.22 MJC=.2 TF=1.98N TR=76.5N)
.ENDS ECG376

*ECG388 MCE 4/2/96
*Si 250W 250V 16A HiPwr AF Amp pkg:TO-3 3,1,2
.SUBCKT ECG388   1 2 3
Q1 1 2 3  QPWR .67
Q2 1 4 3  QPWR .33
RBS  2 4  7.7
.MODEL QPWR NPN (IS=1.17P NF=1 BF=39 VAF=284 IKF=5.33 ISE=2.64N NE=2
+ BR=4 NR=1 VAR=20 IKR=8 RE=20.7M RB=82.9M RC=8.29M XTB=1.5
+ CJE=513P VJE=.6 MJE=.3 CJC=333P VJC=.22 MJC=.2 TF=31.8N TR=1.22U)
.ENDS ECG388

*MJE340 MCE Power Transistor Subcircuit 1/30/96
*    TERMINALS:  C B E
*Si 20.8W 300V 500mA pkg:TO-220 2,3,1
.SUBCKT MJE340  1 2 3
Q1 1 2 3  PWR .67
Q2 1 4 3  PWR .33
RBS  2 4  6.5
.MODEL PWR NPN (IS=36.8F NF=1 BF=260 VAF=311 IKF=.166 ISE=12.3P NE=2
+ BR=4 NR=1 VAR=12 IKR=.25 RE=.663 RB=2.65 RC=.265 XTB=1.5
+ CJE=18.8P VJE=.6 MJE=.3 CJC=12.2P VJC=.22 MJC=.2 TF=7.65N TR=294N)
.ENDS MJE340

*MM3725 MCE 5/13/95
*Si    1W  40V 500mA 307MHz pkg:TO-39 3,2,1
.MODEL MM3725 NPN (IS=50.7F NF=1 BF=162 VAF=113 IKF=.45 ISE=38.2P NE=2
+ BR=4 NR=1 VAR=24 IKR=.675 RE=.263 RB=1.05 RC=.105 XTB=1.5
+ CJE=62.2P VJE=1.1 MJE=.5 CJC=14.6P VJC=.3 MJC=.3 TF=518P TR=45.9N)

*MMBT5089 MCE 5/11/95
*Si 225mW  25V  50mA 600MHz pkg:SOT-23 1,3,2
.MODEL MMBT5089 NPN (IS=6.35F NF=1 BF=840 VAF=90 IKF=30M ISE=222F NE=2
+ BR=4 NR=1 VAR=18 IKR=45M RE=8.15 RB=32.6 RC=3.26 XTB=1.5
+ CJE=4.82P VJE=1.1 MJE=.5 CJC=4.26P VJC=.3 MJC=.3 TF=265P TR=184N)

*MMBT6517 MCE 5/12/95
*Si 225mW 350V 500mA 200MHz pkg:SOT-23 1,3,2
.MODEL MMBT6517 NPN (IS=236F NF=1 BF=130 VAF=336 IKF=.1 ISE=48.6P NE=2
+ BR=4 NR=1 VAR=20 IKR=.15 RE=9.63 RB=38.5 RC=3.85 XTB=1.5
+ CJE=96.5P VJE=1.1 MJE=.5 CJC=21.2P VJC=.3 MJC=.3 TF=795P TR=552N)

*MMBTA06 MCE 5/12/95
*Si 225mW  80V 500mA 200MHz pkg:SOT-23 1,3,2
.MODEL MMBTA06 NPN (IS=2.81E-17 NF=1 BF=260 VAF=161 IKF=.3 ISE=459F NE=2
+ BR=4 NR=1 VAR=16 IKR=.45 RE=.815 RB=3.26 RC=.326 XTB=1.5
+ CJE=58.7P VJE=1.1 MJE=.5 CJC=18.9P VJC=.3 MJC=.3 TF=795P TR=552N)

*MMBTA42 MCE 5/12/95
*Si 225mW 300V 500mA  60MHz pkg:SOT-23 1,3,2
.MODEL MMBTA42 NPN (IS=887F NF=1 BF=78 VAF=311 IKF=.3 ISE=271P NE=2
+ BR=4 NR=1 VAR=24 IKR=.45 RE=11.5 RB=46.3 RC=4.63 XTB=1.5
+ CJE=32.9P VJE=1.1 MJE=.5 CJC=10.6P VJC=.3 MJC=.3 TF=2.65N TR=1.84U)

*MMBTH24 MCE 5/12/95
*Si 225mW  30V  50mA 620MHz pkg:SOT-23 1,3,2
.MODEL MMBTH24 NPN (IS=5.07F NF=1 BF=65 VAF=98.6 IKF=30M ISE=7.8P NE=2
+ BR=4 NR=1 VAR=16 IKR=45M RE=1.03 RB=4.12 RC=.412 XTB=1.5
+ CJE=2.23P VJE=1.1 MJE=.5 CJC=722F VJC=.3 MJC=.3 TF=256P TR=178N)

*MPS651 MCE 5/12/95
*Si 625mW  60V    2A 110MHz pkg:TO-92B 1,2,3
.MODEL MPS651 NPN (IS=72.1F NF=1 BF=260 VAF=139 IKF=2.5 ISE=67.1P NE=2
+ BR=4 NR=1 VAR=20 IKR=3.75 RE=28.2M RB=.113 RC=11.3M XTB=1.5
+ CJE=212P VJE=1.1 MJE=.5 CJC=68.6P VJC=.3 MJC=.3 TF=1.44N TR=1U)

*MPS918 MCE 5/12/95
*Si 350mW  15V  50mA 800MHz pkg:TO-92B 1,2,3
.MODEL MPS918 NPN (IS=5.07F NF=1 BF=130 VAF=69.7 IKF=30M ISE=3.9P NE=2
+ BR=4 NR=1 VAR=12 IKR=45M RE=13.1 RB=52.6 RC=5.26 XTB=1.5
+ CJE=2.41P VJE=1.1 MJE=.5 CJC=4.91P VJC=.3 MJC=.3 TF=198P TR=138N)

*MPS2222A MCE 1/26/96
*Si 625mW  40V 600mA 300MHz pkg:TO-92B 1,2,3
.MODEL MPS2222A NPN (IS=.504F NF=1 BF=339 VAF=113 IKF=.36 ISE=1.63P NE=2
+ BR=4 NR=1 VAR=24 IKR=.54 RE=.173 RB=.692 RC=69.2M XTB=1.5
+ CJE=23.5P VJE=1.1 MJE=.5 CJC=10.6P VJC=.3 MJC=.3 TF=521P TR=272N)

*MPS2711 MCE 8/4/95
*Si 310mW  18V 100mA 490MHz pkg:TO-92B 1,2,3
.MODEL MPS2711 NPN (IS=10.1F NF=1 BF=78 VAF=76.4 IKF=60M ISE=13P NE=2
+ BR=4 NR=1 VAR=20 IKR=90M RE=.515 RB=2.06 RC=.206 XTB=1.5
+ CJE=17.6P VJE=1.1 MJE=.5 CJC=5.68P VJC=.3 MJC=.3 TF=324P TR=225N)

*MPS2712 MCE 8/4/95
*Si 310mW  18V 100mA 490MHz pkg:TO-92B 1,2,3
.MODEL MPS2712 NPN (IS=10.1F NF=1 BF=195 VAF=76.4 IKF=60M ISE=5.2P NE=2
+ BR=4 NR=1 VAR=20 IKR=90M RE=.515 RB=2.06 RC=.206 XTB=1.5
+ CJE=17.6P VJE=1.1 MJE=.5 CJC=5.68P VJC=.3 MJC=.3 TF=324P TR=225N)

*MPS2713 MCE 8/4/95
*Si 310mW  18V 200mA 250MHz pkg:TO-92B 1,2,3
.MODEL MPS2713 NPN (IS=20.3F NF=1 BF=78 VAF=76.4 IKF=.12 ISE=26P NE=2
+ BR=4 NR=1 VAR=20 IKR=.18 RE=.257 RB=1.03 RC=.103 XTB=1.5
+ CJE=22.3P VJE=1.1 MJE=.5 CJC=7.22P VJC=.3 MJC=.3 TF=636P TR=442N)

*MPS2714 MCE 8/4/95
*Si 310mW  18V 200mA 250MHz pkg:TO-92B 1,2,3
.MODEL MPS2714 NPN (IS=20.3F NF=1 BF=195 VAF=76.4 IKF=.12 ISE=10.4P NE=2
+ BR=4 NR=1 VAR=20 IKR=.18 RE=.257 RB=1.03 RC=.103 XTB=1.5
+ CJE=22.3P VJE=1.1 MJE=.5 CJC=7.22P VJC=.3 MJC=.3 TF=636P TR=442N)

*MPS3646 MCE 5/12/95
*Si 625mW  15V 300mA 400MHz pkg:TO-92B 1,2,3
.MODEL MPS3646 NPN (IS=30.4F NF=1 BF=78 VAF=69.7 IKF=.18 ISE=39P NE=2
+ BR=4 NR=1 VAR=20 IKR=.27 RE=1.21 RB=4.86 RC=.486 XTB=1.5
+ CJE=10.8P VJE=1.1 MJE=.5 CJC=11.8P VJC=.3 MJC=.3 TF=397P TR=276N)

*MPS3904 MCE 1/26/96
*Si 625mW  40V 100mA 250MHz pkg:TO-92B 1,2,3
.MODEL MPS3904 NPN (IS=4.72F NF=1 BF=226 VAF=113 IKF=80M ISE=2.03P NE=2
+ BR=4 NR=1 VAR=24 IKR=.12 RE=1.81 RB=7.26 RC=.726 XTB=1.5
+ CJE=7.6P VJE=1.1 MJE=.5 CJC=5.68P VJC=.3 MJC=.3 TF=636P TR=850N)

*MPS5179 MCE 5/12/95
*Si 200mW  12V  50mA 1.5GHz pkg:TO-92B 1,2,3
.MODEL MPS5179 NPN (IS=5.07F NF=1 BF=195 VAF=62.3 IKF=30M ISE=2.6P NE=2
+ BR=4 NR=1 VAR=10 IKR=45M RE=1.03 RB=4.12 RC=.412 XTB=1.5
+ CJE=8.95P VJE=1.1 MJE=.5 CJC=2.89P VJC=.3 MJC=.3 TF=106P TR=73.7N)

*MPS6521 MCE 5/12/95
*Si 625mW  25V 100mA 490MHz pkg:TO-92B 1,2,3
.MODEL MPS6521 NPN (IS=10.1F NF=1 BF=585 VAF=90 IKF=60M ISE=1.73P NE=2
+ BR=4 NR=1 VAR=16 IKR=90M RE=3.63 RB=14.5 RC=1.45 XTB=1.5
+ CJE=31.3P VJE=1.1 MJE=.5 CJC=10.1P VJC=.3 MJC=.3 TF=324P TR=225N)

*MPS6595 MCE 5/12/95
*Si 350mW  12V  50mA 1.5GHz pkg:TO-92B 1,2,3
.MODEL MPS6595 NPN (IS=5.07F NF=1 BF=234 VAF=62.3 IKF=30M ISE=2.16P NE=2
+ BR=4 NR=1 VAR=12 IKR=45M RE=1.03 RB=4.12 RC=.412 XTB=1.5
+ CJE=11.6P VJE=1.1 MJE=.5 CJC=3.75P VJC=.3 MJC=.3 TF=106P TR=73.7N)

*MPS6602 MCE 5/12/95
*Si 625mW  40V    1A 210MHz pkg:TO-92B 1,2,3
.MODEL MPS6602 NPN (IS=101F NF=1 BF=273 VAF=113 IKF=.6 ISE=37.1P NE=2
+ BR=4 NR=1 VAR=16 IKR=.9 RE=.281 RB=1.12 RC=.112 XTB=1.5
+ CJE=80.1P VJE=1.1 MJE=.5 CJC=17.3P VJC=.3 MJC=.3 TF=757P TR=510N)

*MPS8099 MCE 5/12/95
*Si 625mW  80V 500mA 225MHz pkg:TO-92B 1,2,3
.MODEL MPS8099 NPN (IS=9.73F NF=1 BF=1.33K VAF=161 IKF=.16 ISE=10.9P NE=2
+ BR=4 NR=1 VAR=20 IKR=.24 RE=.257 RB=1.03 RC=.103 XTB=1.5
+ CJE=22.1P VJE=1.1 MJE=.5 CJC=7.57P VJC=.3 MJC=.3 TF=623P TR=1.53U)

*MPSA06 MCE 5/12/95
*Si 625mW  80V 500mA 219MHz pkg:TO-92B 1,2,3
.MODEL MPSA06 NPN (IS=50.7F NF=1 BF=286 VAF=161 IKF=.3 ISE=17.7P NE=2
+ BR=4 NR=1 VAR=16 IKR=.45 RE=.103 RB=.412 RC=41.2M XTB=1.5
+ CJE=58.7P VJE=1.1 MJE=.5 CJC=18.9P VJC=.3 MJC=.3 TF=725P TR=504N)

*MPSA17 MCE 5/12/95
*Si 350mW  40V 100mA 125MHz pkg:TO-92B 1,2,3
.MODEL MPSA17 NPN (IS=28.7F NF=1 BF=630 VAF=113 IKF=40M ISE=4.71P NE=2
+ BR=4 NR=1 VAR=60 IKR=60M RE=4.81 RB=19.2 RC=1.92 XTB=1.5
+ CJE=17.6P VJE=1.1 MJE=.5 CJC=5.68P VJC=.3 MJC=.3 TF=1.27N TR=884N)

*MPSA18 MCE 5/12/95
*Si 625mW  45V 200mA 450MHz pkg:TO-92B 1,2,3
.MODEL MPSA18 NPN (IS=20.3F NF=1 BF=1.43K VAF=120 IKF=.12 ISE=1.41P NE=2
+ BR=4 NR=1 VAR=26 IKR=.18 RE=.465 RB=1.86 RC=.186 XTB=1.5
+ CJE=7.87P VJE=1.1 MJE=.5 CJC=5.2P VJC=.3 MJC=.3 TF=353P TR=245N)

*MPSA44 MCE 5/12/95
*Si 625mW 400V 300mA 200MHz pkg:TO-92B 1,2,3
.MODEL MPSA44 NPN (IS=141F NF=1 BF=130 VAF=360 IKF=.18 ISE=50.4P NE=2
+ BR=4 NR=1 VAR=2.4 IKR=.27 RE=1.77 RB=7.09 RC=.709 XTB=1.5
+ CJE=111P VJE=1.1 MJE=.5 CJC=17.9P VJC=.3 MJC=.3 TF=795P TR=552N)

*MPSH20 MCE 5/12/95
*Si 350mW  30V 100mA 620MHz pkg:TO-92B 1,2,3
.MODEL MPSH20 NPN (IS=10.1F NF=1 BF=130 VAF=98.6 IKF=60M ISE=7.8P NE=2
+ BR=4 NR=1 VAR=16 IKR=90M RE=.515 RB=2.06 RC=.206 XTB=1.5
+ CJE=2.17P VJE=1.1 MJE=.5 CJC=1.65P VJC=.3 MJC=.3 TF=256P TR=178N)

*MPSW01A MCE 5/12/95
*Si    1W  40V    1A 210MHz pkg:TO-92B 1,2,3
.MODEL MPSW01A NPN (IS=18.1F NF=1 BF=273 VAF=113 IKF=.6 ISE=15.7P NE=2
+ BR=4 NR=1 VAR=20 IKR=.9 RE=96.5M RB=.386 RC=38.6M XTB=1.5
+ CJE=78.7P VJE=1.1 MJE=.5 CJC=17.3P VJC=.3 MJC=.3 TF=757P TR=526N)

*MPSW06 MCE 5/12/95
*Si    1W  80V 500mA 219MHz pkg:TO-92B 1,2,3
.MODEL MPSW06 NPN (IS=50.7F NF=1 BF=286 VAF=161 IKF=.3 ISE=17.7P NE=2
+ BR=4 NR=1 VAR=16 IKR=.45 RE=.103 RB=.412 RC=41.2M XTB=1.5
+ CJE=58.7P VJE=1.1 MJE=.5 CJC=18.9P VJC=.3 MJC=.3 TF=725P TR=504N)

*MSC1621 MCE 5/12/95
*Si 200mW  20V 200mA 346MHz pkg:SC-59 1,3,2
.MODEL MSC1621 NPN (IS=20.3F NF=1 BF=130 VAF=80.5 IKF=.12 ISE=15.6P NE=2
+ BR=4 NR=1 VAR=20 IKR=.18 RE=.257 RB=1.03 RC=.103 XTB=1.5
+ CJE=27.8P VJE=1.1 MJE=.5 CJC=8.99P VJC=.3 MJC=.3 TF=458P TR=318N)

*MSC2295 MCE 5/12/95
*Si 200mW  20V  30mA 300MHz pkg:SC-59 1,3,2
.MODEL MSC2295B NPN (IS=3.04F NF=1 BF=143 VAF=80.5 IKF=18M ISE=2.12P NE=2
+ BR=4 NR=1 VAR=20 IKR=27M RE=1.71 RB=6.87 RC=.687 XTB=1.5
+ CJE=10.4P VJE=1.1 MJE=.5 CJC=3.36P VJC=.3 MJC=.3 TF=530P TR=368N)

*MSC2295C MCE 5/12/95
*Si 200mW  20V  30mA 300MHz pkg:SC-59 1,3,2
.MODEL MSC2295C NPN (IS=3.04F NF=1 BF=234 VAF=80.5 IKF=18M ISE=1.3P NE=2
+ BR=4 NR=1 VAR=20 IKR=27M RE=1.71 RB=6.87 RC=.687 XTB=1.5
+ CJE=10.4P VJE=1.1 MJE=.5 CJC=3.36P VJC=.3 MJC=.3 TF=530P TR=368N)

*MSC2404C MCE 5/13/95
*Si 200mW  20V  15mA 1.2GHz pkg:SC-59 1,3,2
.MODEL MSC2404C NPN (IS=1.52F NF=1 BF=143 VAF=80.5 IKF=9M ISE=1.06P NE=2
+ BR=4 NR=1 VAR=12 IKR=13.5M RE=3.43 RB=13.7 RC=1.37 XTB=1.5
+ CJE=8.88P VJE=1.1 MJE=.5 CJC=2.86P VJC=.3 MJC=.3 TF=125P TR=87.3N)

*MSC3130 MCE 5/12/95
*Si 200mW  10V  50mA   2GHz pkg:SC-59 1,3,2
.MODEL MSC3130 NPN (IS=5.07F NF=1 BF=325 VAF=56.9 IKF=30M ISE=1.56P NE=2
+ BR=4 NR=1 VAR=12 IKR=45M RE=1.03 RB=4.12 RC=.412 XTB=1.5
+ CJE=12.4P VJE=1.1 MJE=.5 CJC=4.02P VJC=.3 MJC=.3 TF=79.5P TR=55.2N)

*MSD601R MCE 5/12/95
*Si 200mW  25V 100mA 490MHz pkg:SC-59 1,3,2
.MODEL MSD601R NPN (IS=10.1F NF=1 BF=390 VAF=90 IKF=60M ISE=2.6P NE=2
+ BR=4 NR=1 VAR=28 IKR=90M RE=.815 RB=3.26 RC=.326 XTB=1.5
+ CJE=17.6P VJE=1.1 MJE=.5 CJC=5.68P VJC=.3 MJC=.3 TF=324P TR=225N)

*MSD602R MCE 5/12/95
*Si 200mW  25V 500mA 219MHz pkg:SC-59 1,3,2
.MODEL MSD602R NPN (IS=50.7F NF=1 BF=260 VAF=90 IKF=.3 ISE=19.5P NE=2
+ BR=4 NR=1 VAR=28 IKR=.45 RE=.438 RB=1.75 RC=.175 XTB=1.5
+ CJE=58.7P VJE=1.1 MJE=.5 CJC=18.9P VJC=.3 MJC=.3 TF=725P TR=504N)

*MSD1328R MCE 5/12/95
*Si 200mW  20V 500mA 219MHz pkg:SC-59 1,3,2
.MODEL MSD1328R NPN (IS=50.7F NF=1 BF=357 VAF=80.5 IKF=.3 ISE=14.1P NE=2
+ BR=4 NR=1 VAR=48 IKR=.45 RE=.263 RB=1.05 RC=.105 XTB=1.5
+ CJE=58.7P VJE=1.1 MJE=.5 CJC=18.9P VJC=.3 MJC=.3 TF=725P TR=504N)

*BC368 MCE 5-9-97
*Ref: National Discrete Products Databook, 1996
*Si 625mW 20V 2A 45MHz GenPurp pkg:TO-92B 2,1,3
.MODEL BC368 NPN (IS=203F NF=1 BF=286 VAF=80.5 IKF=1.2 ISE=91.5P NE=2
+ BR=4 NR=1 VAR=20 IKR=1.8 RE=25.8M RB=0.103 RC=10.3M XTB=1.5
+ CJE=213P VJE=1.1 MJE=0.5 CJC=68.6P VJC=0.3 MJC=0.3 TF=3.53N TR=2.46U)

*BC817-25 MCE 5-9-97
*Ref: National Discrete Products Databook, 1996
*Si 350mW 45V 1.5A 127MHz GenPurp pkg:SOT-23 1,3,2
.MODEL BC817-25 NPN (IS=152F NF=1 BF=325 VAF=121 IKF=0.9 ISE=60.5P NE=2
+ BR=4 NR=1 VAR=20 IKR=1.35 RE=34.3M RB=0.137 RC=13.7M XTB=1.5
+ CJE=161P VJE=1.1 MJE=0.5 CJC=52.1P VJC=0.3 MJC=0.3 TF=1.26N TR=873N)

*BC817-40 MCE 5-9-97
*Ref: National Discrete Products Databook, 1996
*Si 350mW 45V 1.5A 127MHz GenPurp pkg:SOT-23 1,3,2
.MODEL BC817-40 NPN (IS=152F NF=1 BF=520 VAF=121 IKF=0.9 ISE=37.8P NE=2
+ BR=4 NR=1 VAR=20 IKR=1.35 RE=34.3M RB=0.137 RC=13.7M XTB=1.5
+ CJE=161P VJE=1.1 MJE=0.5 CJC=52.1P VJC=0.3 MJC=0.3 TF=1.26N TR=873N)

*BC818-25 MCE 5-9-97
*Ref: National Discrete Products Databook, 1996
*Si 350mW 25V 1.5A 127MHz GenPurp pkg:SOT-23 1,3,2
.MODEL BC818-25 NPN (IS=152F NF=1 BF=325 VAF=90 IKF=0.9 ISE=60.5P NE=2
+ BR=4 NR=1 VAR=20 IKR=1.35 RE=34.3M RB=0.137 RC=13.7M XTB=1.5
+ CJE=161P VJE=1.1 MJE=0.5 CJC=52.1P VJC=0.3 MJC=0.3 TF=1.26N TR=873N)

*BC818-40 MCE 5-9-97
*Ref: National Discrete Products Databook, 1996
*Si 350mW 25V 1.5A 127MHz GenPurp pkg:SOT-23 1,3,2
.MODEL BC818-40 NPN (IS=152F NF=1 BF=520 VAF=90 IKF=0.9 ISE=37.8P NE=2
+ BR=4 NR=1 VAR=20 IKR=1.35 RE=34.3M RB=0.137 RC=13.7M XTB=1.5
+ CJE=161P VJE=1.1 MJE=0.5 CJC=52.1P VJC=0.3 MJC=0.3 TF=1.26N TR=873N)

*BC846A MCE 5-9-97
*Ref: National Discrete Products Databook, 1996
*Si 325mW 65V 100mA 100MHz pkg:SOT-23 1,3,2
.MODEL BC846A NPN (IS=10.2F NF=1 BF=195 VAF=145 IKF=60M ISE=6.72P NE=2
+ BR=4 NR=1 VAR=24 IKR=90M RE=2.81 RB=11.3 RC=1.13 XTB=1.5
+ CJE=17.6P VJE=1.1 MJE=0.5 CJC=5.68P VJC=0.3 MJC=0.3 TF=1.59N TR=1.1U)

*BC847A MCE 5-9-97
*Ref: National Discrete Products Databook, 1996
*Si 325mW 45V 100mA 100MHz GenPurp pkg:SOT-23 1,3,2
.MODEL BC847A NPN (IS=10.2F NF=1 BF=195 VAF=121 IKF=60M ISE=6.72P NE=2
+ BR=4 NR=1 VAR=24 IKR=90M RE=2.81 RB=11.3 RC=1.13 XTB=1.5
+ CJE=17.6P VJE=1.1 MJE=0.5 CJC=5.68P VJC=0.3 MJC=0.3 TF=1.59N TR=1.1U)

*BC847C MCE 5-9-97
*Ref: National Discrete Products Databook, 1996
*Si 325mW 45V 100mA 100MHz GenPurp pkg:SOT-23 1,3,2
.MODEL BC847C NPN (IS=10.2F NF=1 BF=780 VAF=121 IKF=60M ISE=1.68P NE=2
+ BR=4 NR=1 VAR=24 IKR=90M RE=2.81 RB=11.3 RC=1.13 XTB=1.5
+ CJE=17.6P VJE=1.1 MJE=0.5 CJC=5.68P VJC=0.3 MJC=0.3 TF=1.59N TR=1.1U)

*BCP54 MCE 5-9-97
*Ref: National Discrete Products Databook, 1996
*Si 1.5W 45V 1.5A 127MHz GenPurp pkg:SOT-223 2,1,3
.MODEL BCP54 NPN (IS=152F NF=1 BF=241 VAF=121 IKF=0.9 ISE=81.6P NE=2
+ BR=4 NR=1 VAR=20 IKR=1.35 RE=34.3M RB=0.137 RC=13.7M XTB=1.5
+ CJE=161P VJE=1.1 MJE=0.5 CJC=52.1P VJC=0.3 MJC=0.3 TF=1.26N TR=873N)

*BCW31 MCE 5-9-97
*Ref: National Discrete Products Databook, 1996
*Si 350mW 32V 500mA 200MHz GenPurp pkg:SOT-23 1,3,2
.MODEL BCW31 NPN (IS=50.8F NF=1 BF=234 VAF=102 IKF=0.3 ISE=28P NE=2
+ BR=4 NR=1 VAR=20 IKR=0.45 RE=0.103 RB=0.412 RC=41.2M XTB=1.5
+ CJE=35.8P VJE=1.1 MJE=0.5 CJC=11.6P VJC=0.3 MJC=0.3 TF=795P TR=552N)

*BCW33 MCE 5-9-97
*Ref: National Discrete Products Databook, 1996
*Si 350mW 32V 500mA 200MHz GenPurp pkg:SOT-23 1,3,2
.MODEL BCW33 NPN (IS=50.8F NF=1 BF=780 VAF=102 IKF=0.3 ISE=8.4P NE=2
+ BR=4 NR=1 VAR=20 IKR=0.45 RE=0.103 RB=0.412 RC=41.2M XTB=1.5
+ CJE=35.8P VJE=1.1 MJE=0.5 CJC=11.6P VJC=0.3 MJC=0.3 TF=795P TR=552N)

*BCW65C MCE 5-9-97
*Ref: National Discrete Products Databook, 1996
*Si 350mW 32V 1A 100MHz GenPurp pkg:SOT-23 1,3,2
.MODEL BCW65C NPN (IS=102F NF=1 BF=390 VAF=102 IKF=0.6 ISE=33.6P NE=2
+ BR=4 NR=1 VAR=20 IKR=0.9 RE=51.5M RB=0.206 RC=20.6M XTB=1.5
+ CJE=96.5P VJE=1.1 MJE=0.5 CJC=34.7P VJC=0.3 MJC=0.3 TF=1.59N TR=1.1U)

*BCW71 MCE 5-9-97
*Ref: National Discrete Products Databook, 1996
*Si 350mW 45V 500mA 300MHz GenPurp pkg:SOT-23 1,3,2
.MODEL BCW71 NPN (IS=50.8F NF=1 BF=234 VAF=121 IKF=0.3 ISE=28P NE=2
+ BR=4 NR=1 VAR=20 IKR=0.45 RE=0.103 RB=0.412 RC=41.2M XTB=1.5
+ CJE=10.9P VJE=1.1 MJE=0.5 CJC=11.6P VJC=0.3 MJC=0.3 TF=530P TR=368N)

*BCW71 MCE 5-9-97
*Ref: National Discrete Products Databook, 1996
*Si 1.2W 60V 4A 75MHz CurrentDrvr pkg:SOT-223 2,1,3
.SUBCKT NZT651   1 2 3
*    TERMINALS:  C B E
Q1 1 2 3  QPWR .67
Q2 1 4 3  QPWR .33
RBS  2 4  30.5
.MODEL QPWR NPN (IS=295F NF=1 BF=104 VAF=139 IKF=1.33 ISE=248P NE=2
+ BR=4 NR=1 VAR=20 IKR=2 RE=82.9M RB=0.331 RC=33.1M XTB=1.5
+ CJE=131P VJE=0.6 MJE=0.3 CJC=84.8P VJC=0.22 MJC=0.2 TF=2.12N TR=81.6N)
.ENDS 

*2N3903 MCE 5-20-97
*Ref: Motorola Small-Signal Device Databook, Q4/94
*Si 625mW 40V 200mA 250MHz GenPurp pkg:TO-92B 1,2,3
.MODEL 2N3903 NPN (IS=20.3F NF=1 BF=190 VAF=114 IKF=50M ISE=20.2P NE=2
+ BR=4 NR=1 VAR=24 IKR=75M RE=0.258 RB=1.03 RC=0.103 XTB=1.5
+ CJE=4.42P VJE=1.1 MJE=0.5 CJC=4.73P VJC=0.3 MJC=0.3 TF=636P TR=298N)

*2N4123 MCE 5-20-97
*Ref: Motorola Small-Signal Device Databook, Q4/94
*Si 625mW 30V 200mA 250MHz GenPurp pkg:TO-92B 1,2,3
.MODEL 2N4123 NPN (IS=20.3F NF=1 BF=190 VAF=98.6 IKF=50M ISE=20.2P NE=2
+ BR=4 NR=1 VAR=20 IKR=75M RE=0.258 RB=1.03 RC=0.103 XTB=1.5
+ CJE=4.42P VJE=1.1 MJE=0.5 CJC=4.73P VJC=0.3 MJC=0.3 TF=636P TR=442N)

*2N4264 MCE 5-20-97
*Ref: Motorola Small-Signal Device Databook, Q4/94
*Si 350mW 15V 200mA 300MHz GenPurp pkg:TO-92B 1,2,3
.MODEL 2N4264 NPN (IS=20.3F NF=1 BF=130 VAF=69.7 IKF=0.2 ISE=20.2P NE=2
+ BR=4 NR=1 VAR=24 IKR=0.3 RE=0.258 RB=1.03 RC=0.103 XTB=1.5
+ CJE=6.91P VJE=1.1 MJE=0.5 CJC=6.39P VJC=0.3 MJC=0.3 TF=530P TR=368N)

*2N4265 MCE 5-20-97
*Ref: Motorola Small-Signal Device Databook, Q4/94
*Si 350mW 12V 200mA 300MHz GenPurp pkg:TO-92B 1,2,3