*==============================================
*NJFET Pinout: 1=D, 2=G, 3=S
*Copyright (c) 1997 MicroCode Engineering, Inc.
*All Rights Reserved
*==============================================

*NJFET
*Default N-Ch J-FET pkg:TO-92B 3,1,2
.MODEL NJFET~ NJF()

*2N4393
*40V 30mA Dep-Mode pkg:TO-18 2,3,1
.MODEL 2N4393 NJF(VTO=-1.422 BETA=0.009109 LAMBDA=0.006 RD=1 RS=1 
+ CGS=4.06E-12 CGD=4.57E-12 IS=2.052E-13 KF=1.23E-16 )

*2N5457 MCE 7-10-95
*Ref: Motorola Small-Signal Databook, Q4/94
*25V  25mA  250 ohm Dep-Mode pkg:TO-92B 3,1,2
.MODEL 2N5457 NJF(VTO=-1.8 BETA=0.00135 LAMBDA=0.001 RD=35 RS=31.5 
+ CGS=2.25E-12 CGD=6E-12 KF=6.5E-17 AF=0.5 )

*2N5459 MCE 7-10-95
*25V  25mA  250 ohm Dep-Mode pkg:TO-92B 3,1,2
.MODEL 2N5459 NJF(VTO=-3 BETA=0.00135 LAMBDA=0.001 RD=35 RS=31.5 
+ CGS=2.25E-12 CGD=6E-12 KF=6.5E-17 AF=0.5 )

*2N5484 MCE 7-10-95
*Ref: Motorola Small-Signal Databook, Q4/94
*25V  30mA  175 ohm Dep-Mode pkg:TO-92B 3,1,2
.MODEL 2N5484 NJF(VTO=-1.8 BETA=0.004 LAMBDA=0.01 RD=24.5 RS=22 
+ CGS=2.5E-12 CGD=4E-12 IS=9.48E-15 )

*2N5486 MCE
*Ref: Motorola Small-Signal Databook, Q4/94
*25V  30mA  28.8ohm  Dep-Mode pkg:TO-92B 3,1,2
.MODEL 2N5486 NJF(VTO=-4 BETA=0.0065 LAMBDA=0.00266 RD=4.04 RS=3.63 
+ CGS=2E-12 CGD=3.03E-12 IS=9.48E-15 )

*2N5640 MCE
*Ref: Motorola Small-Signal Databook, Q4/94
*30V  20mA  35.3ohm  Dep-Mode pkg:TO-92B 3,1,2
.MODEL 2N5640 NJF(VTO=-2.5 BETA=0.005 LAMBDA=0.001 RD=4.95 RS=4.45 
+ CGS=1.92E-11 CGD=5.12E-12 IS=5.26E-15 )

*2N5668 MCE
*Ref: Motorola Small-Signal Databook, Q4/94
*25V  20mA  35.3ohm  Dep-Mode pkg:TO-92B 3,1,2
.MODEL 2N5668 NJF(VTO=-2.5 BETA=0.0015 LAMBDA=0.0012 RD=4.95 RS=4.45 
+ CGS=2.35E-12 CGD=4E-12 IS=6.32E-15 )

*2N5669 MCE
*Ref: Motorola Small-Signal Databook, Q4/94
*25V  20mA  35.3ohm  Dep-Mode pkg:TO-92B 3,1,2
.MODEL 2N5669 NJF(VTO=-3.5 BETA=0.0035 LAMBDA=0.0012 RD=4.95 RS=4.45 
+ CGS=2.35E-12 CGD=4E-12 IS=6.32E-15 )

*2N5670 MCE
*Ref: Motorola Small-Signal Databook, Q4/94
*25V  20mA  35.3ohm  Dep-Mode pkg:TO-92B 3,1,2
.MODEL 2N5670 NJF(VTO=-5 BETA=0.0065 LAMBDA=0.0012 RD=4.95 RS=4.45 
+ CGS=2.35E-12 CGD=4E-12 IS=6.32E-15 )

*2N4416
*30V 150mA Depl pkg:TO-92B 1,2,3
.MODEL 2N4416 NJF (VTO=-6 BETA=3.75M LAMBDA=1M RD=5.72
+ RS=5.14 IS=3.95F PB=1 FC=.5 CGS=11.5P CGD=2.88P)

*BF244A MCE 5-9-97
*Ref: National Discrete Products Databook, 1996
*30V 50mA Depl pkg:TO-92B 1,2,3
.MODEL BF244A NJF (VTO=-2.5 BETA=5.6M LAMBDA=1.6M RD=3.13
+ RS=2.82 IS=13.2F PB=1 FC=.5 CGS=2.12P CGD=3.13P)

*BF244B MCE 5-9-97
*Ref: National Discrete Products Databook, 1996
*30V 50mA Depl pkg:TO-92B 1,2,3
.MODEL BF244B NJF (VTO=-2.5 BETA=5.6M LAMBDA=1.6M RD=3.13
+ RS=2.82 IS=13.2F PB=1 FC=.5 CGS=2.12P CGD=3.13P)

*BF244C MCE 5-9-97
*Ref: National Discrete Products Databook, 1996
*30V 50mA Depl pkg:TO-92B 1,2,3
.MODEL BF244C NJF (VTO=-2.5 BETA=5.6M LAMBDA=1.6M RD=3.13
+ RS=2.82 IS=13.2F PB=1 FC=.5 CGS=2.12P CGD=3.13P)

*===========================
*PJFET Pinout: 1=D, 2=G, 3=S
*===========================

*PJFET
*Default P-Ch J-FET parameters pkg:TO-92B 2,1,3
.MODEL PJFET~ PJF()

*2N5460
*Motorola Dep-Mode 20V 20mA 35.3ohm pkg:TO-92B 2,1,3
.MODEL 2N5460 PJF(VTO=-3.2 BETA=0.0017 LAMBDA=0.00563 RD=49.4 RS=44.5 
+ CGS=9E-12 CGD=4E-12 IS=1.95E-15 KF=1.104E-17 )
